file 16357608 1699691334                                        
version 2
run Base-0-20231111-17:28:46-28203
attr configname Base
attr datetime 20231111-17:28:46
attr experiment Base
attr inifile omnetpp.ini
attr iterationvars ""
attr iterationvarsf ""
attr measurement ""
attr network artery.envmod.World
attr processid 28203
attr repetition 0
attr replication #0
attr resultdir results
attr runnumber 0
attr seedset 0
param *.traci.launcher.sumocfg "\"myroad/test.sumocfg.xml\""
param *.traci.launcher.sumo "\"sumo-gui\""
param **.lteNic.phy.channelModel "xmldoc(\"config_channel.xml\")"
param **.feedbackComputation "xmldoc(\"config_channel.xml\")"
param *.node[*].d2dCapable true
param *.node[*].mode4D2D true
param **.amcMode "\"D2D\""
param *.node[*].nicType "\"LteNicVUeMode4\""
param *.node[*].lteNic.d2dCapable true
param *.node[*].lteNic.pdcpRrc.ipBased false
param *.node[*].lteNic.rlc.ipBased false
param *.node[*].lteNic.mac.subchannelSize 16
param *.node[*].lteNic.mac.numSubchannels 3
param *.node[*].lteNic.mac.probResourceKeep 0.4
param *.node[*].lteNic.mac.useCBR false
param *.node[*].lteNic.mac.crLimit false
param *.node[*].lteNic.mac.rriLookup false
param *.node[*].lteNic.mac.dccMechanism false
param *.node[*].lteNic.mac.packetDropping false
param *.node[*].lteNic.mac.reselectAfter 1
param *.node[*].lteNic.mac.adjacencyPSCCHPSSCH true
param *.node[*].lteNic.rlc.um.packetSize 190
param *.node[*].lteNic.rlc.um.scenario3gpp false
param *.node[*].lteNic.phy.subchannelSize 16
param *.node[*].lteNic.phy.numSubchannels 3
param *.node[*].lteNic.phy.selectionWindowStartingSubframe 1
param *.node[*].lteNic.phy.adjacencyPSCCHPSSCH true
param *.node[*].lteNic.phy.pStep 100
param *.node[*].lteNic.phy.thresholdRSSI 10
param *.node[*].ueTxPower 23
param **.usePreconfiguredTxParams true
param *.node[*].application.typename "\"artery.lte.Mode4Application\""
param *.node[*].application.middleware.updateInterval 0.1s
param *.node[*].application.middleware.datetime "\"2013-06-01 12:35:00\""
param *.node[*].application.middleware.services "xmldoc(\"services.xml\")"
param **.lteNic.mac.txConfig "xmldoc(\"sidelink_configuration.xml\")"
param *.node[*].middleware.updateInterval 0.1s
param *.node[*].middleware.datetime "\"2018-01-17 13:44:00\""
param *.node[*].middleware.services "xmldoc(\"services.xml\")"
param *.node[*].middleware.CaService.withDccRestriction false
param *.node[*].vanetza.dcc.TransmitRateControl "\"NoTransmitRateControl\""
param *.node[*].middleware.CollectivePerceptionMockService.dccProfile 3
param *.node[*].middleware.CollectivePerceptionMockService.cpmInterval 0.1
param *.node[*].environmentModel.sensors "xmldoc(\"sensors.xml\")"
param *.node[*].environmentModel.CircularRadar.fovRange 150m
param *.node[*].environmentModel.CircularRadar.fovAngle 359
param *.node[*].environmentModel.CircularRadar.numSegments 10
param **.identityRegistryModule "\"idRegistry\""
param *.traci.mapper.vehicleType "\"artery.envmod.Car\""
param *.environmentModel.obstacleTypes "\"building shop\""
param *.environmentModel.traciModule "\"traci\""
param *.environmentModel.nodeMobilityModule "\".mobility\""
param **.coreDebug false
param **.routingRecorder.enabled false
param *.playgroundSizeX 20000m
param *.playgroundSizeY 20000m
param *.playgroundSizeZ 50m
param *.traci.core.version -1
param *.traci.launcher.typename "\"PosixLauncher\""
param *.traci.core.startTime 1s
param **.deployer.positionUpdateInterval 0.001s
param **.channelControl.pMax 10W
param **.channelControl.alpha 1.0
param **.channelControl.carrierFrequency 6000e+6Hz
param **.rbAllocationType "\"localized\""
param **.feedbackType "\"ALLBANDS\""
param **.feedbackGeneratorType "\"IDEAL\""
param **.maxHarqRtx 0
param **.deployer.ruRange 50
param **.deployer.ruTxPower "\"50,50,50;\""
param **.deployer.antennaCws "\"2;\""
param **.deployer.numRbDl 51
param **.deployer.numRbUl 48
param **.numBands 48
param **.fbDelay 1

vector 0 World.node[0].lteNic.phy servingCell:vector ETV
attr source servingCell
attr title "ID of the serving eNodeB for the UE, vector"
attr unit ""
vector 1 World.node[0].lteNic.mac macNodeID:vector ETV
attr source macNodeID
attr title "Reports Mac NodeID to allow for trans to nodeID, vector"
vector 2 World.node[1].lteNic.phy servingCell:vector ETV
attr source servingCell
attr title "ID of the serving eNodeB for the UE, vector"
attr unit ""
vector 3 World.node[1].lteNic.mac macNodeID:vector ETV
attr source macNodeID
attr title "Reports Mac NodeID to allow for trans to nodeID, vector"
vector 4 World.node[2].lteNic.phy servingCell:vector ETV
attr source servingCell
attr title "ID of the serving eNodeB for the UE, vector"
attr unit ""
vector 5 World.node[2].lteNic.mac macNodeID:vector ETV
attr source macNodeID
attr title "Reports Mac NodeID to allow for trans to nodeID, vector"
vector 6 World.node[3].lteNic.phy servingCell:vector ETV
attr source servingCell
attr title "ID of the serving eNodeB for the UE, vector"
attr unit ""
vector 7 World.node[3].lteNic.mac macNodeID:vector ETV
attr source macNodeID
attr title "Reports Mac NodeID to allow for trans to nodeID, vector"
vector 8 World.node[4].lteNic.phy servingCell:vector ETV
attr source servingCell
attr title "ID of the serving eNodeB for the UE, vector"
attr unit ""
vector 9 World.node[4].lteNic.mac macNodeID:vector ETV
attr source macNodeID
attr title "Reports Mac NodeID to allow for trans to nodeID, vector"
vector 10 World.node[5].lteNic.phy servingCell:vector ETV
attr source servingCell
attr title "ID of the serving eNodeB for the UE, vector"
attr unit ""
vector 11 World.node[5].lteNic.mac macNodeID:vector ETV
attr source macNodeID
attr title "Reports Mac NodeID to allow for trans to nodeID, vector"
vector 12 World.node[6].lteNic.phy servingCell:vector ETV
attr source servingCell
attr title "ID of the serving eNodeB for the UE, vector"
attr unit ""
vector 13 World.node[6].lteNic.mac macNodeID:vector ETV
attr source macNodeID
attr title "Reports Mac NodeID to allow for trans to nodeID, vector"
vector 14 World.node[7].lteNic.phy servingCell:vector ETV
attr source servingCell
attr title "ID of the serving eNodeB for the UE, vector"
attr unit ""
vector 15 World.node[7].lteNic.mac macNodeID:vector ETV
attr source macNodeID
attr title "Reports Mac NodeID to allow for trans to nodeID, vector"
vector 16 World.node[8].lteNic.phy servingCell:vector ETV
attr source servingCell
attr title "ID of the serving eNodeB for the UE, vector"
attr unit ""
vector 17 World.node[8].lteNic.mac macNodeID:vector ETV
attr source macNodeID
attr title "Reports Mac NodeID to allow for trans to nodeID, vector"
vector 18 World.node[9].lteNic.phy servingCell:vector ETV
attr source servingCell
attr title "ID of the serving eNodeB for the UE, vector"
attr unit ""
vector 19 World.node[9].lteNic.mac macNodeID:vector ETV
attr source macNodeID
attr title "Reports Mac NodeID to allow for trans to nodeID, vector"
vector 20 World.node[10].lteNic.phy servingCell:vector ETV
attr source servingCell
attr title "ID of the serving eNodeB for the UE, vector"
attr unit ""
vector 21 World.node[10].lteNic.mac macNodeID:vector ETV
attr source macNodeID
attr title "Reports Mac NodeID to allow for trans to nodeID, vector"
vector 22 World.node[11].lteNic.phy servingCell:vector ETV
attr source servingCell
attr title "ID of the serving eNodeB for the UE, vector"
attr unit ""
vector 23 World.node[11].lteNic.mac macNodeID:vector ETV
attr source macNodeID
attr title "Reports Mac NodeID to allow for trans to nodeID, vector"
vector 24 World.node[12].lteNic.phy servingCell:vector ETV
attr source servingCell
attr title "ID of the serving eNodeB for the UE, vector"
attr unit ""
vector 25 World.node[12].lteNic.mac macNodeID:vector ETV
attr source macNodeID
attr title "Reports Mac NodeID to allow for trans to nodeID, vector"
vector 26 World.node[13].lteNic.phy servingCell:vector ETV
attr source servingCell
attr title "ID of the serving eNodeB for the UE, vector"
attr unit ""
vector 27 World.node[13].lteNic.mac macNodeID:vector ETV
attr source macNodeID
attr title "Reports Mac NodeID to allow for trans to nodeID, vector"
vector 28 World.node[14].lteNic.phy servingCell:vector ETV
attr source servingCell
attr title "ID of the serving eNodeB for the UE, vector"
attr unit ""
vector 29 World.node[14].lteNic.mac macNodeID:vector ETV
attr source macNodeID
attr title "Reports Mac NodeID to allow for trans to nodeID, vector"
vector 30 World.node[15].lteNic.phy servingCell:vector ETV
attr source servingCell
attr title "ID of the serving eNodeB for the UE, vector"
attr unit ""
vector 31 World.node[15].lteNic.mac macNodeID:vector ETV
attr source macNodeID
attr title "Reports Mac NodeID to allow for trans to nodeID, vector"
vector 32 World.node[16].lteNic.phy servingCell:vector ETV
attr source servingCell
attr title "ID of the serving eNodeB for the UE, vector"
attr unit ""
vector 33 World.node[16].lteNic.mac macNodeID:vector ETV
attr source macNodeID
attr title "Reports Mac NodeID to allow for trans to nodeID, vector"
vector 34 World.node[17].lteNic.phy servingCell:vector ETV
attr source servingCell
attr title "ID of the serving eNodeB for the UE, vector"
attr unit ""
vector 35 World.node[17].lteNic.mac macNodeID:vector ETV
attr source macNodeID
attr title "Reports Mac NodeID to allow for trans to nodeID, vector"
vector 36 World.node[18].lteNic.phy servingCell:vector ETV
attr source servingCell
attr title "ID of the serving eNodeB for the UE, vector"
attr unit ""
vector 37 World.node[18].lteNic.mac macNodeID:vector ETV
attr source macNodeID
attr title "Reports Mac NodeID to allow for trans to nodeID, vector"
vector 38 World.node[19].lteNic.phy servingCell:vector ETV
attr source servingCell
attr title "ID of the serving eNodeB for the UE, vector"
attr unit ""
vector 39 World.node[19].lteNic.mac macNodeID:vector ETV
attr source macNodeID
attr title "Reports Mac NodeID to allow for trans to nodeID, vector"
vector 40 World.node[20].lteNic.phy servingCell:vector ETV
attr source servingCell
attr title "ID of the serving eNodeB for the UE, vector"
attr unit ""
vector 41 World.node[20].lteNic.mac macNodeID:vector ETV
attr source macNodeID
attr title "Reports Mac NodeID to allow for trans to nodeID, vector"
vector 42 World.node[0].lteNic.phy posX:vector ETV
attr source posX
attr title "X position of node (at reception time), vector"
vector 43 World.node[0].lteNic.phy posY:vector ETV
attr source posY
attr title "Y position of node (at reception time), vector"
vector 44 World.node[1].lteNic.phy posX:vector ETV
attr source posX
attr title "X position of node (at reception time), vector"
vector 45 World.node[1].lteNic.phy posY:vector ETV
attr source posY
attr title "Y position of node (at reception time), vector"
vector 46 World.node[2].lteNic.phy posX:vector ETV
attr source posX
attr title "X position of node (at reception time), vector"
vector 47 World.node[2].lteNic.phy posY:vector ETV
attr source posY
attr title "Y position of node (at reception time), vector"
vector 48 World.node[3].lteNic.phy posX:vector ETV
attr source posX
attr title "X position of node (at reception time), vector"
vector 49 World.node[3].lteNic.phy posY:vector ETV
attr source posY
attr title "Y position of node (at reception time), vector"
vector 50 World.node[4].lteNic.phy posX:vector ETV
attr source posX
attr title "X position of node (at reception time), vector"
vector 51 World.node[4].lteNic.phy posY:vector ETV
attr source posY
attr title "Y position of node (at reception time), vector"
vector 52 World.node[5].lteNic.phy posX:vector ETV
attr source posX
attr title "X position of node (at reception time), vector"
vector 53 World.node[5].lteNic.phy posY:vector ETV
attr source posY
attr title "Y position of node (at reception time), vector"
vector 54 World.node[6].lteNic.phy posX:vector ETV
attr source posX
attr title "X position of node (at reception time), vector"
vector 55 World.node[6].lteNic.phy posY:vector ETV
attr source posY
attr title "Y position of node (at reception time), vector"
vector 56 World.node[7].lteNic.phy posX:vector ETV
attr source posX
attr title "X position of node (at reception time), vector"
vector 57 World.node[7].lteNic.phy posY:vector ETV
attr source posY
attr title "Y position of node (at reception time), vector"
vector 58 World.node[8].lteNic.phy posX:vector ETV
attr source posX
attr title "X position of node (at reception time), vector"
vector 59 World.node[8].lteNic.phy posY:vector ETV
attr source posY
attr title "Y position of node (at reception time), vector"
vector 60 World.node[9].lteNic.phy posX:vector ETV
attr source posX
attr title "X position of node (at reception time), vector"
vector 61 World.node[9].lteNic.phy posY:vector ETV
attr source posY
attr title "Y position of node (at reception time), vector"
vector 62 World.node[10].lteNic.phy posX:vector ETV
attr source posX
attr title "X position of node (at reception time), vector"
vector 63 World.node[10].lteNic.phy posY:vector ETV
attr source posY
attr title "Y position of node (at reception time), vector"
vector 64 World.node[11].lteNic.phy posX:vector ETV
attr source posX
attr title "X position of node (at reception time), vector"
vector 65 World.node[11].lteNic.phy posY:vector ETV
attr source posY
attr title "Y position of node (at reception time), vector"
vector 66 World.node[12].lteNic.phy posX:vector ETV
attr source posX
attr title "X position of node (at reception time), vector"
vector 67 World.node[12].lteNic.phy posY:vector ETV
attr source posY
attr title "Y position of node (at reception time), vector"
vector 68 World.node[13].lteNic.phy posX:vector ETV
attr source posX
attr title "X position of node (at reception time), vector"
vector 69 World.node[13].lteNic.phy posY:vector ETV
attr source posY
attr title "Y position of node (at reception time), vector"
vector 70 World.node[14].lteNic.phy posX:vector ETV
attr source posX
attr title "X position of node (at reception time), vector"
vector 71 World.node[14].lteNic.phy posY:vector ETV
attr source posY
attr title "Y position of node (at reception time), vector"
vector 72 World.node[15].lteNic.phy posX:vector ETV
attr source posX
attr title "X position of node (at reception time), vector"
vector 73 World.node[15].lteNic.phy posY:vector ETV
attr source posY
attr title "Y position of node (at reception time), vector"
vector 74 World.node[16].lteNic.phy posX:vector ETV
attr source posX
attr title "X position of node (at reception time), vector"
vector 75 World.node[16].lteNic.phy posY:vector ETV
attr source posY
attr title "Y position of node (at reception time), vector"
vector 76 World.node[17].lteNic.phy posX:vector ETV
attr source posX
attr title "X position of node (at reception time), vector"
vector 77 World.node[17].lteNic.phy posY:vector ETV
attr source posY
attr title "Y position of node (at reception time), vector"
vector 78 World.node[18].lteNic.phy posX:vector ETV
attr source posX
attr title "X position of node (at reception time), vector"
vector 79 World.node[18].lteNic.phy posY:vector ETV
attr source posY
attr title "Y position of node (at reception time), vector"
vector 80 World.node[19].lteNic.phy posX:vector ETV
attr source posX
attr title "X position of node (at reception time), vector"
vector 81 World.node[19].lteNic.phy posY:vector ETV
attr source posY
attr title "Y position of node (at reception time), vector"
vector 82 World.node[20].lteNic.phy posX:vector ETV
attr source posX
attr title "X position of node (at reception time), vector"
vector 83 World.node[20].lteNic.phy posY:vector ETV
attr source posY
attr title "Y position of node (at reception time), vector"
vector 84 World.node[0].environmentModel id:vector ETV
attr source id
attr title "id, vector"
vector 85 World.node[0].environmentModel positionX:vector ETV
attr source positionX
attr title "positionX, vector"
vector 86 World.node[0].environmentModel positionY:vector ETV
attr source positionY
attr title "positionY, vector"
vector 87 World.node[0].environmentModel speed:vector ETV
attr source speed
attr title "speed, vector"
vector 88 World.node[0].environmentModel heading:vector ETV
attr source heading
attr title "heading, vector"
vector 89 World.node[0].environmentModel longitudinalAcceleration:vector ETV
attr source longitudinalAcceleration
attr title "longitudinalAcceleration, vector"
vector 90 World.node[0].environmentModel yawrate:vector ETV
attr source yawrate
attr title "yawrate, vector"
vector 91 World.node[0].environmentModel sensedVehicleId:vector ETV
attr source sensedVehicleId
attr title "sensedVehicleId, vector"
vector 92 World.node[0].environmentModel sensorName:vector ETV
attr source sensorName
attr title "sensorName, vector"
vector 93 World.node[0].environmentModel sensorMeasureTime:vector ETV
attr source sensorMeasureTime
attr title "sensorMeasureTime, vector"
vector 94 World.node[1].environmentModel id:vector ETV
attr source id
attr title "id, vector"
vector 95 World.node[1].environmentModel positionX:vector ETV
attr source positionX
attr title "positionX, vector"
vector 96 World.node[1].environmentModel positionY:vector ETV
attr source positionY
attr title "positionY, vector"
vector 97 World.node[1].environmentModel speed:vector ETV
attr source speed
attr title "speed, vector"
vector 98 World.node[1].environmentModel heading:vector ETV
attr source heading
attr title "heading, vector"
vector 99 World.node[1].environmentModel longitudinalAcceleration:vector ETV
attr source longitudinalAcceleration
attr title "longitudinalAcceleration, vector"
vector 100 World.node[1].environmentModel yawrate:vector ETV
attr source yawrate
attr title "yawrate, vector"
vector 101 World.node[1].environmentModel sensedVehicleId:vector ETV
attr source sensedVehicleId
attr title "sensedVehicleId, vector"
vector 102 World.node[1].environmentModel sensorName:vector ETV
attr source sensorName
attr title "sensorName, vector"
vector 103 World.node[1].environmentModel sensorMeasureTime:vector ETV
attr source sensorMeasureTime
attr title "sensorMeasureTime, vector"
vector 104 World.node[2].environmentModel id:vector ETV
attr source id
attr title "id, vector"
vector 105 World.node[2].environmentModel positionX:vector ETV
attr source positionX
attr title "positionX, vector"
vector 106 World.node[2].environmentModel positionY:vector ETV
attr source positionY
attr title "positionY, vector"
vector 107 World.node[2].environmentModel speed:vector ETV
attr source speed
attr title "speed, vector"
vector 108 World.node[2].environmentModel heading:vector ETV
attr source heading
attr title "heading, vector"
vector 109 World.node[2].environmentModel longitudinalAcceleration:vector ETV
attr source longitudinalAcceleration
attr title "longitudinalAcceleration, vector"
vector 110 World.node[2].environmentModel yawrate:vector ETV
attr source yawrate
attr title "yawrate, vector"
vector 111 World.node[2].environmentModel sensedVehicleId:vector ETV
attr source sensedVehicleId
attr title "sensedVehicleId, vector"
vector 112 World.node[2].environmentModel sensorName:vector ETV
attr source sensorName
attr title "sensorName, vector"
vector 113 World.node[2].environmentModel sensorMeasureTime:vector ETV
attr source sensorMeasureTime
attr title "sensorMeasureTime, vector"
vector 114 World.node[3].environmentModel id:vector ETV
attr source id
attr title "id, vector"
vector 115 World.node[3].environmentModel positionX:vector ETV
attr source positionX
attr title "positionX, vector"
vector 116 World.node[3].environmentModel positionY:vector ETV
attr source positionY
attr title "positionY, vector"
vector 117 World.node[3].environmentModel speed:vector ETV
attr source speed
attr title "speed, vector"
vector 118 World.node[3].environmentModel heading:vector ETV
attr source heading
attr title "heading, vector"
vector 119 World.node[3].environmentModel longitudinalAcceleration:vector ETV
attr source longitudinalAcceleration
attr title "longitudinalAcceleration, vector"
vector 120 World.node[3].environmentModel yawrate:vector ETV
attr source yawrate
attr title "yawrate, vector"
vector 121 World.node[3].environmentModel sensedVehicleId:vector ETV
attr source sensedVehicleId
attr title "sensedVehicleId, vector"
vector 122 World.node[3].environmentModel sensorName:vector ETV
attr source sensorName
attr title "sensorName, vector"
vector 123 World.node[3].environmentModel sensorMeasureTime:vector ETV
attr source sensorMeasureTime
attr title "sensorMeasureTime, vector"
vector 124 World.node[4].environmentModel id:vector ETV
attr source id
attr title "id, vector"
vector 125 World.node[4].environmentModel positionX:vector ETV
attr source positionX
attr title "positionX, vector"
vector 126 World.node[4].environmentModel positionY:vector ETV
attr source positionY
attr title "positionY, vector"
vector 127 World.node[4].environmentModel speed:vector ETV
attr source speed
attr title "speed, vector"
vector 128 World.node[4].environmentModel heading:vector ETV
attr source heading
attr title "heading, vector"
vector 129 World.node[4].environmentModel longitudinalAcceleration:vector ETV
attr source longitudinalAcceleration
attr title "longitudinalAcceleration, vector"
vector 130 World.node[4].environmentModel yawrate:vector ETV
attr source yawrate
attr title "yawrate, vector"
vector 131 World.node[4].environmentModel sensedVehicleId:vector ETV
attr source sensedVehicleId
attr title "sensedVehicleId, vector"
vector 132 World.node[4].environmentModel sensorName:vector ETV
attr source sensorName
attr title "sensorName, vector"
vector 133 World.node[4].environmentModel sensorMeasureTime:vector ETV
attr source sensorMeasureTime
attr title "sensorMeasureTime, vector"
vector 134 World.node[5].environmentModel id:vector ETV
attr source id
attr title "id, vector"
vector 135 World.node[5].environmentModel positionX:vector ETV
attr source positionX
attr title "positionX, vector"
vector 136 World.node[5].environmentModel positionY:vector ETV
attr source positionY
attr title "positionY, vector"
vector 137 World.node[5].environmentModel speed:vector ETV
attr source speed
attr title "speed, vector"
vector 138 World.node[5].environmentModel heading:vector ETV
attr source heading
attr title "heading, vector"
vector 139 World.node[5].environmentModel longitudinalAcceleration:vector ETV
attr source longitudinalAcceleration
attr title "longitudinalAcceleration, vector"
vector 140 World.node[5].environmentModel yawrate:vector ETV
attr source yawrate
attr title "yawrate, vector"
vector 141 World.node[5].environmentModel sensedVehicleId:vector ETV
attr source sensedVehicleId
attr title "sensedVehicleId, vector"
vector 142 World.node[5].environmentModel sensorName:vector ETV
attr source sensorName
attr title "sensorName, vector"
vector 143 World.node[5].environmentModel sensorMeasureTime:vector ETV
attr source sensorMeasureTime
attr title "sensorMeasureTime, vector"
vector 144 World.node[6].environmentModel id:vector ETV
attr source id
attr title "id, vector"
vector 145 World.node[6].environmentModel positionX:vector ETV
attr source positionX
attr title "positionX, vector"
vector 146 World.node[6].environmentModel positionY:vector ETV
attr source positionY
attr title "positionY, vector"
vector 147 World.node[6].environmentModel speed:vector ETV
attr source speed
attr title "speed, vector"
vector 148 World.node[6].environmentModel heading:vector ETV
attr source heading
attr title "heading, vector"
vector 149 World.node[6].environmentModel longitudinalAcceleration:vector ETV
attr source longitudinalAcceleration
attr title "longitudinalAcceleration, vector"
vector 150 World.node[6].environmentModel yawrate:vector ETV
attr source yawrate
attr title "yawrate, vector"
vector 151 World.node[6].environmentModel sensedVehicleId:vector ETV
attr source sensedVehicleId
attr title "sensedVehicleId, vector"
vector 152 World.node[6].environmentModel sensorName:vector ETV
attr source sensorName
attr title "sensorName, vector"
vector 153 World.node[6].environmentModel sensorMeasureTime:vector ETV
attr source sensorMeasureTime
attr title "sensorMeasureTime, vector"
vector 154 World.node[7].environmentModel id:vector ETV
attr source id
attr title "id, vector"
vector 155 World.node[7].environmentModel positionX:vector ETV
attr source positionX
attr title "positionX, vector"
vector 156 World.node[7].environmentModel positionY:vector ETV
attr source positionY
attr title "positionY, vector"
vector 157 World.node[7].environmentModel speed:vector ETV
attr source speed
attr title "speed, vector"
vector 158 World.node[7].environmentModel heading:vector ETV
attr source heading
attr title "heading, vector"
vector 159 World.node[7].environmentModel longitudinalAcceleration:vector ETV
attr source longitudinalAcceleration
attr title "longitudinalAcceleration, vector"
vector 160 World.node[7].environmentModel yawrate:vector ETV
attr source yawrate
attr title "yawrate, vector"
vector 161 World.node[7].environmentModel sensedVehicleId:vector ETV
attr source sensedVehicleId
attr title "sensedVehicleId, vector"
vector 162 World.node[7].environmentModel sensorName:vector ETV
attr source sensorName
attr title "sensorName, vector"
vector 163 World.node[7].environmentModel sensorMeasureTime:vector ETV
attr source sensorMeasureTime
attr title "sensorMeasureTime, vector"
vector 164 World.node[8].environmentModel id:vector ETV
attr source id
attr title "id, vector"
vector 165 World.node[8].environmentModel positionX:vector ETV
attr source positionX
attr title "positionX, vector"
vector 166 World.node[8].environmentModel positionY:vector ETV
attr source positionY
attr title "positionY, vector"
vector 167 World.node[8].environmentModel speed:vector ETV
attr source speed
attr title "speed, vector"
vector 168 World.node[8].environmentModel heading:vector ETV
attr source heading
attr title "heading, vector"
vector 169 World.node[8].environmentModel longitudinalAcceleration:vector ETV
attr source longitudinalAcceleration
attr title "longitudinalAcceleration, vector"
vector 170 World.node[8].environmentModel yawrate:vector ETV
attr source yawrate
attr title "yawrate, vector"
vector 171 World.node[8].environmentModel sensedVehicleId:vector ETV
attr source sensedVehicleId
attr title "sensedVehicleId, vector"
vector 172 World.node[8].environmentModel sensorName:vector ETV
attr source sensorName
attr title "sensorName, vector"
vector 173 World.node[8].environmentModel sensorMeasureTime:vector ETV
attr source sensorMeasureTime
attr title "sensorMeasureTime, vector"
vector 174 World.node[9].environmentModel id:vector ETV
attr source id
attr title "id, vector"
vector 175 World.node[9].environmentModel positionX:vector ETV
attr source positionX
attr title "positionX, vector"
vector 176 World.node[9].environmentModel positionY:vector ETV
attr source positionY
attr title "positionY, vector"
vector 177 World.node[9].environmentModel speed:vector ETV
attr source speed
attr title "speed, vector"
vector 178 World.node[9].environmentModel heading:vector ETV
attr source heading
attr title "heading, vector"
vector 179 World.node[9].environmentModel longitudinalAcceleration:vector ETV
attr source longitudinalAcceleration
attr title "longitudinalAcceleration, vector"
vector 180 World.node[9].environmentModel yawrate:vector ETV
attr source yawrate
attr title "yawrate, vector"
vector 181 World.node[9].environmentModel sensedVehicleId:vector ETV
attr source sensedVehicleId
attr title "sensedVehicleId, vector"
vector 182 World.node[9].environmentModel sensorName:vector ETV
attr source sensorName
attr title "sensorName, vector"
vector 183 World.node[9].environmentModel sensorMeasureTime:vector ETV
attr source sensorMeasureTime
attr title "sensorMeasureTime, vector"
vector 184 World.node[10].environmentModel id:vector ETV
attr source id
attr title "id, vector"
vector 185 World.node[10].environmentModel positionX:vector ETV
attr source positionX
attr title "positionX, vector"
vector 186 World.node[10].environmentModel positionY:vector ETV
attr source positionY
attr title "positionY, vector"
vector 187 World.node[10].environmentModel speed:vector ETV
attr source speed
attr title "speed, vector"
vector 188 World.node[10].environmentModel heading:vector ETV
attr source heading
attr title "heading, vector"
vector 189 World.node[10].environmentModel longitudinalAcceleration:vector ETV
attr source longitudinalAcceleration
attr title "longitudinalAcceleration, vector"
vector 190 World.node[10].environmentModel yawrate:vector ETV
attr source yawrate
attr title "yawrate, vector"
vector 191 World.node[10].environmentModel sensedVehicleId:vector ETV
attr source sensedVehicleId
attr title "sensedVehicleId, vector"
vector 192 World.node[10].environmentModel sensorName:vector ETV
attr source sensorName
attr title "sensorName, vector"
vector 193 World.node[10].environmentModel sensorMeasureTime:vector ETV
attr source sensorMeasureTime
attr title "sensorMeasureTime, vector"
vector 194 World.node[11].environmentModel id:vector ETV
attr source id
attr title "id, vector"
vector 195 World.node[11].environmentModel positionX:vector ETV
attr source positionX
attr title "positionX, vector"
vector 196 World.node[11].environmentModel positionY:vector ETV
attr source positionY
attr title "positionY, vector"
vector 197 World.node[11].environmentModel speed:vector ETV
attr source speed
attr title "speed, vector"
vector 198 World.node[11].environmentModel heading:vector ETV
attr source heading
attr title "heading, vector"
vector 199 World.node[11].environmentModel longitudinalAcceleration:vector ETV
attr source longitudinalAcceleration
attr title "longitudinalAcceleration, vector"
vector 200 World.node[11].environmentModel yawrate:vector ETV
attr source yawrate
attr title "yawrate, vector"
vector 201 World.node[11].environmentModel sensedVehicleId:vector ETV
attr source sensedVehicleId
attr title "sensedVehicleId, vector"
vector 202 World.node[11].environmentModel sensorName:vector ETV
attr source sensorName
attr title "sensorName, vector"
vector 203 World.node[11].environmentModel sensorMeasureTime:vector ETV
attr source sensorMeasureTime
attr title "sensorMeasureTime, vector"
vector 204 World.node[12].environmentModel id:vector ETV
attr source id
attr title "id, vector"
vector 205 World.node[12].environmentModel positionX:vector ETV
attr source positionX
attr title "positionX, vector"
vector 206 World.node[12].environmentModel positionY:vector ETV
attr source positionY
attr title "positionY, vector"
vector 207 World.node[12].environmentModel speed:vector ETV
attr source speed
attr title "speed, vector"
vector 208 World.node[12].environmentModel heading:vector ETV
attr source heading
attr title "heading, vector"
vector 209 World.node[12].environmentModel longitudinalAcceleration:vector ETV
attr source longitudinalAcceleration
attr title "longitudinalAcceleration, vector"
vector 210 World.node[12].environmentModel yawrate:vector ETV
attr source yawrate
attr title "yawrate, vector"
vector 211 World.node[12].environmentModel sensedVehicleId:vector ETV
attr source sensedVehicleId
attr title "sensedVehicleId, vector"
vector 212 World.node[12].environmentModel sensorName:vector ETV
attr source sensorName
attr title "sensorName, vector"
vector 213 World.node[12].environmentModel sensorMeasureTime:vector ETV
attr source sensorMeasureTime
attr title "sensorMeasureTime, vector"
vector 214 World.node[13].environmentModel id:vector ETV
attr source id
attr title "id, vector"
vector 215 World.node[13].environmentModel positionX:vector ETV
attr source positionX
attr title "positionX, vector"
vector 216 World.node[13].environmentModel positionY:vector ETV
attr source positionY
attr title "positionY, vector"
vector 217 World.node[13].environmentModel speed:vector ETV
attr source speed
attr title "speed, vector"
vector 218 World.node[13].environmentModel heading:vector ETV
attr source heading
attr title "heading, vector"
vector 219 World.node[13].environmentModel longitudinalAcceleration:vector ETV
attr source longitudinalAcceleration
attr title "longitudinalAcceleration, vector"
vector 220 World.node[13].environmentModel yawrate:vector ETV
attr source yawrate
attr title "yawrate, vector"
vector 221 World.node[13].environmentModel sensedVehicleId:vector ETV
attr source sensedVehicleId
attr title "sensedVehicleId, vector"
vector 222 World.node[13].environmentModel sensorName:vector ETV
attr source sensorName
attr title "sensorName, vector"
vector 223 World.node[13].environmentModel sensorMeasureTime:vector ETV
attr source sensorMeasureTime
attr title "sensorMeasureTime, vector"
vector 224 World.node[14].environmentModel id:vector ETV
attr source id
attr title "id, vector"
vector 225 World.node[14].environmentModel positionX:vector ETV
attr source positionX
attr title "positionX, vector"
vector 226 World.node[14].environmentModel positionY:vector ETV
attr source positionY
attr title "positionY, vector"
vector 227 World.node[14].environmentModel speed:vector ETV
attr source speed
attr title "speed, vector"
vector 228 World.node[14].environmentModel heading:vector ETV
attr source heading
attr title "heading, vector"
vector 229 World.node[14].environmentModel longitudinalAcceleration:vector ETV
attr source longitudinalAcceleration
attr title "longitudinalAcceleration, vector"
vector 230 World.node[14].environmentModel yawrate:vector ETV
attr source yawrate
attr title "yawrate, vector"
vector 231 World.node[14].environmentModel sensedVehicleId:vector ETV
attr source sensedVehicleId
attr title "sensedVehicleId, vector"
vector 232 World.node[14].environmentModel sensorName:vector ETV
attr source sensorName
attr title "sensorName, vector"
vector 233 World.node[14].environmentModel sensorMeasureTime:vector ETV
attr source sensorMeasureTime
attr title "sensorMeasureTime, vector"
vector 234 World.node[15].environmentModel id:vector ETV
attr source id
attr title "id, vector"
vector 235 World.node[15].environmentModel positionX:vector ETV
attr source positionX
attr title "positionX, vector"
vector 236 World.node[15].environmentModel positionY:vector ETV
attr source positionY
attr title "positionY, vector"
vector 237 World.node[15].environmentModel speed:vector ETV
attr source speed
attr title "speed, vector"
vector 238 World.node[15].environmentModel heading:vector ETV
attr source heading
attr title "heading, vector"
vector 239 World.node[15].environmentModel longitudinalAcceleration:vector ETV
attr source longitudinalAcceleration
attr title "longitudinalAcceleration, vector"
vector 240 World.node[15].environmentModel yawrate:vector ETV
attr source yawrate
attr title "yawrate, vector"
vector 241 World.node[15].environmentModel sensedVehicleId:vector ETV
attr source sensedVehicleId
attr title "sensedVehicleId, vector"
vector 242 World.node[15].environmentModel sensorName:vector ETV
attr source sensorName
attr title "sensorName, vector"
vector 243 World.node[15].environmentModel sensorMeasureTime:vector ETV
attr source sensorMeasureTime
attr title "sensorMeasureTime, vector"
vector 244 World.node[16].environmentModel id:vector ETV
attr source id
attr title "id, vector"
vector 245 World.node[16].environmentModel positionX:vector ETV
attr source positionX
attr title "positionX, vector"
vector 246 World.node[16].environmentModel positionY:vector ETV
attr source positionY
attr title "positionY, vector"
vector 247 World.node[16].environmentModel speed:vector ETV
attr source speed
attr title "speed, vector"
vector 248 World.node[16].environmentModel heading:vector ETV
attr source heading
attr title "heading, vector"
vector 249 World.node[16].environmentModel longitudinalAcceleration:vector ETV
attr source longitudinalAcceleration
attr title "longitudinalAcceleration, vector"
vector 250 World.node[16].environmentModel yawrate:vector ETV
attr source yawrate
attr title "yawrate, vector"
vector 251 World.node[16].environmentModel sensedVehicleId:vector ETV
attr source sensedVehicleId
attr title "sensedVehicleId, vector"
vector 252 World.node[16].environmentModel sensorName:vector ETV
attr source sensorName
attr title "sensorName, vector"
vector 253 World.node[16].environmentModel sensorMeasureTime:vector ETV
attr source sensorMeasureTime
attr title "sensorMeasureTime, vector"
vector 254 World.node[17].environmentModel id:vector ETV
attr source id
attr title "id, vector"
vector 255 World.node[17].environmentModel positionX:vector ETV
attr source positionX
attr title "positionX, vector"
vector 256 World.node[17].environmentModel positionY:vector ETV
attr source positionY
attr title "positionY, vector"
vector 257 World.node[17].environmentModel speed:vector ETV
attr source speed
attr title "speed, vector"
vector 258 World.node[17].environmentModel heading:vector ETV
attr source heading
attr title "heading, vector"
vector 259 World.node[17].environmentModel longitudinalAcceleration:vector ETV
attr source longitudinalAcceleration
attr title "longitudinalAcceleration, vector"
vector 260 World.node[17].environmentModel yawrate:vector ETV
attr source yawrate
attr title "yawrate, vector"
vector 261 World.node[17].environmentModel sensedVehicleId:vector ETV
attr source sensedVehicleId
attr title "sensedVehicleId, vector"
vector 262 World.node[17].environmentModel sensorName:vector ETV
attr source sensorName
attr title "sensorName, vector"
vector 263 World.node[17].environmentModel sensorMeasureTime:vector ETV
attr source sensorMeasureTime
attr title "sensorMeasureTime, vector"
vector 264 World.node[18].environmentModel id:vector ETV
attr source id
attr title "id, vector"
vector 265 World.node[18].environmentModel positionX:vector ETV
attr source positionX
attr title "positionX, vector"
vector 266 World.node[18].environmentModel positionY:vector ETV
attr source positionY
attr title "positionY, vector"
vector 267 World.node[18].environmentModel speed:vector ETV
attr source speed
attr title "speed, vector"
vector 268 World.node[18].environmentModel heading:vector ETV
attr source heading
attr title "heading, vector"
vector 269 World.node[18].environmentModel longitudinalAcceleration:vector ETV
attr source longitudinalAcceleration
attr title "longitudinalAcceleration, vector"
vector 270 World.node[18].environmentModel yawrate:vector ETV
attr source yawrate
attr title "yawrate, vector"
vector 271 World.node[18].environmentModel sensedVehicleId:vector ETV
attr source sensedVehicleId
attr title "sensedVehicleId, vector"
vector 272 World.node[18].environmentModel sensorName:vector ETV
attr source sensorName
attr title "sensorName, vector"
vector 273 World.node[18].environmentModel sensorMeasureTime:vector ETV
attr source sensorMeasureTime
attr title "sensorMeasureTime, vector"
vector 274 World.node[19].environmentModel id:vector ETV
attr source id
attr title "id, vector"
vector 275 World.node[19].environmentModel positionX:vector ETV
attr source positionX
attr title "positionX, vector"
vector 276 World.node[19].environmentModel positionY:vector ETV
attr source positionY
attr title "positionY, vector"
vector 277 World.node[19].environmentModel speed:vector ETV
attr source speed
attr title "speed, vector"
vector 278 World.node[19].environmentModel heading:vector ETV
attr source heading
attr title "heading, vector"
vector 279 World.node[19].environmentModel longitudinalAcceleration:vector ETV
attr source longitudinalAcceleration
attr title "longitudinalAcceleration, vector"
vector 280 World.node[19].environmentModel yawrate:vector ETV
attr source yawrate
attr title "yawrate, vector"
vector 281 World.node[19].environmentModel sensedVehicleId:vector ETV
attr source sensedVehicleId
attr title "sensedVehicleId, vector"
vector 282 World.node[19].environmentModel sensorName:vector ETV
attr source sensorName
attr title "sensorName, vector"
vector 283 World.node[19].environmentModel sensorMeasureTime:vector ETV
attr source sensorMeasureTime
attr title "sensorMeasureTime, vector"
vector 284 World.node[20].environmentModel id:vector ETV
attr source id
attr title "id, vector"
vector 285 World.node[20].environmentModel positionX:vector ETV
attr source positionX
attr title "positionX, vector"
vector 286 World.node[20].environmentModel positionY:vector ETV
attr source positionY
attr title "positionY, vector"
vector 287 World.node[20].environmentModel speed:vector ETV
attr source speed
attr title "speed, vector"
vector 288 World.node[20].environmentModel heading:vector ETV
attr source heading
attr title "heading, vector"
vector 289 World.node[20].environmentModel longitudinalAcceleration:vector ETV
attr source longitudinalAcceleration
attr title "longitudinalAcceleration, vector"
vector 290 World.node[20].environmentModel yawrate:vector ETV
attr source yawrate
attr title "yawrate, vector"
vector 291 World.node[20].environmentModel sensedVehicleId:vector ETV
attr source sensedVehicleId
attr title "sensedVehicleId, vector"
vector 292 World.node[20].environmentModel sensorName:vector ETV
attr source sensorName
attr title "sensorName, vector"
vector 293 World.node[20].environmentModel sensorMeasureTime:vector ETV
attr source sensorMeasureTime
attr title "sensorMeasureTime, vector"
vector 294 World.node[7].lteNic.phy cbr:vector ETV
attr source cbr
attr title "Channel Busy Ratio, vector"
vector 295 World.node[7].lteNic.phy cbrPscch:vector ETV
attr source cbrPscch
attr title "Channel Busy Ratio for PSCCH, vector"
vector 296 World.node[7].lteNic.mac receivedPacketFromLowerLayer:vector(packetBytes) ETV
attr interpolationmode none
attr source receivedPacketFromLowerLayer
vector 297 World.node[7].lteNic.mac sentPacketToUpperLayer:vector(packetBytes) ETV
attr interpolationmode none
attr source sentPacketToUpperLayer
vector 298 World.node[7].lteNic.pdcpRrc sentPacketToUpperLayer:vector(packetBytes) ETV
attr interpolationmode none
attr source sentPacketToUpperLayer
vector 299 World.node[11].middleware.CaService camGenerationTime:vector ETV
attr source camGenerationTime
attr title "camGenerationTime, vector"
vector 300 World.node[11].middleware.CaService camSourceId:vector ETV
attr source camSourceId
attr title "camSourceId, vector"
vector 301 World.node[11].lteNic.pdcpRrc receivedPacketFromUpperLayer:vector(packetBytes) ETV
attr interpolationmode none
attr source receivedPacketFromUpperLayer
vector 302 World.node[11].lteNic.pdcpRrc sentPacketToLowerLayer:vector(packetBytes) ETV
attr interpolationmode none
attr source sentPacketToLowerLayer
vector 303 World.node[11].lteNic.mac resourceReselectionCounter:vector ETV
attr source resourceReselectionCounter
attr title "ResourceReselectionCounter selectedNumber of transmissions, vector"
vector 304 World.node[11].lteNic.mac sentPacketToLowerLayer:vector(packetBytes) ETV
attr interpolationmode none
attr source sentPacketToLowerLayer
vector 305 World.node[11].lteNic.mac grantRequests:vector ETV
attr source grantRequests
attr title "Total number of requested grants, vector"
vector 306 World.node[11].lteNic.mac receivedPacketFromUpperLayer:vector(packetBytes) ETV
attr interpolationmode none
attr source receivedPacketFromUpperLayer
vector 307 World.node[11].lteNic.mac receivedPacketFromLowerLayer:vector(packetBytes) ETV
attr interpolationmode none
attr source receivedPacketFromLowerLayer
vector 308 World.node[11].lteNic.mac grantStartTime:vector ETV
attr source grantStartTime
attr title "Grant StartTime, vector"
vector 309 World.node[11].lteNic.mac selectedSubchannelIndex:vector ETV
attr source selectedSubchannelIndex
attr title "SelectedSubchannelIndex, vector"
vector 310 World.node[11].lteNic.mac selectedNumSubchannels:vector ETV
attr source selectedNumSubchannels
attr title "SelectedNumSubchannels, vector"
vector 311 World.node[11].lteNic.mac takingReservedGrant:vector ETV
attr source takingReservedGrant
attr title "takingReservedGrant, vector"
vector 312 World.node[12].middleware.CP cpmGenerationTime:vector ETV
attr source cpmGenerationTime
attr title "cpmGenerationTime, vector"
vector 313 World.node[12].middleware.CP cpmSourceId:vector ETV
attr source cpmSourceId
attr title "cpmSourceId, vector"
vector 314 World.node[12].middleware.CP cpmContainedId:vector ETV
attr source cpmContainedId
attr title "cpmContainedId, vector"
vector 315 World.node[12].lteNic.pdcpRrc receivedPacketFromUpperLayer:vector(packetBytes) ETV
attr interpolationmode none
attr source receivedPacketFromUpperLayer
vector 316 World.node[12].lteNic.pdcpRrc sentPacketToLowerLayer:vector(packetBytes) ETV
attr interpolationmode none
attr source sentPacketToLowerLayer
vector 317 World.node[12].lteNic.mac resourceReselectionCounter:vector ETV
attr source resourceReselectionCounter
attr title "ResourceReselectionCounter selectedNumber of transmissions, vector"
vector 318 World.node[12].lteNic.mac sentPacketToLowerLayer:vector(packetBytes) ETV
attr interpolationmode none
attr source sentPacketToLowerLayer
vector 319 World.node[12].lteNic.mac grantRequests:vector ETV
attr source grantRequests
attr title "Total number of requested grants, vector"
vector 320 World.node[12].lteNic.mac receivedPacketFromUpperLayer:vector(packetBytes) ETV
attr interpolationmode none
attr source receivedPacketFromUpperLayer
vector 321 World.node[12].lteNic.mac receivedPacketFromLowerLayer:vector(packetBytes) ETV
attr interpolationmode none
attr source receivedPacketFromLowerLayer
vector 322 World.node[12].lteNic.mac grantStartTime:vector ETV
attr source grantStartTime
attr title "Grant StartTime, vector"
vector 323 World.node[12].lteNic.mac selectedSubchannelIndex:vector ETV
attr source selectedSubchannelIndex
attr title "SelectedSubchannelIndex, vector"
vector 324 World.node[12].lteNic.mac selectedNumSubchannels:vector ETV
attr source selectedNumSubchannels
attr title "SelectedNumSubchannels, vector"
vector 325 World.node[12].lteNic.mac takingReservedGrant:vector ETV
attr source takingReservedGrant
attr title "takingReservedGrant, vector"
vector 326 World.node[16].middleware.CP cpmGenerationTime:vector ETV
attr source cpmGenerationTime
attr title "cpmGenerationTime, vector"
vector 327 World.node[16].middleware.CP cpmSourceId:vector ETV
attr source cpmSourceId
attr title "cpmSourceId, vector"
vector 328 World.node[16].middleware.CP cpmContainedId:vector ETV
attr source cpmContainedId
attr title "cpmContainedId, vector"
vector 329 World.node[16].lteNic.pdcpRrc receivedPacketFromUpperLayer:vector(packetBytes) ETV
attr interpolationmode none
attr source receivedPacketFromUpperLayer
vector 330 World.node[16].lteNic.pdcpRrc sentPacketToLowerLayer:vector(packetBytes) ETV
attr interpolationmode none
attr source sentPacketToLowerLayer
vector 331 World.node[16].lteNic.mac resourceReselectionCounter:vector ETV
attr source resourceReselectionCounter
attr title "ResourceReselectionCounter selectedNumber of transmissions, vector"
vector 332 World.node[16].lteNic.mac sentPacketToLowerLayer:vector(packetBytes) ETV
attr interpolationmode none
attr source sentPacketToLowerLayer
vector 333 World.node[16].lteNic.mac grantRequests:vector ETV
attr source grantRequests
attr title "Total number of requested grants, vector"
vector 334 World.node[16].lteNic.mac receivedPacketFromUpperLayer:vector(packetBytes) ETV
attr interpolationmode none
attr source receivedPacketFromUpperLayer
vector 335 World.node[16].lteNic.mac receivedPacketFromLowerLayer:vector(packetBytes) ETV
attr interpolationmode none
attr source receivedPacketFromLowerLayer
vector 336 World.node[16].lteNic.mac grantStartTime:vector ETV
attr source grantStartTime
attr title "Grant StartTime, vector"
vector 337 World.node[16].lteNic.mac selectedSubchannelIndex:vector ETV
attr source selectedSubchannelIndex
attr title "SelectedSubchannelIndex, vector"
vector 338 World.node[16].lteNic.mac selectedNumSubchannels:vector ETV
attr source selectedNumSubchannels
attr title "SelectedNumSubchannels, vector"
vector 339 World.node[16].lteNic.mac takingReservedGrant:vector ETV
attr source takingReservedGrant
attr title "takingReservedGrant, vector"
vector 340 World.node[15].middleware.CP cpmGenerationTime:vector ETV
attr source cpmGenerationTime
attr title "cpmGenerationTime, vector"
vector 341 World.node[15].middleware.CP cpmSourceId:vector ETV
attr source cpmSourceId
attr title "cpmSourceId, vector"
vector 342 World.node[15].middleware.CP cpmContainedId:vector ETV
attr source cpmContainedId
attr title "cpmContainedId, vector"
vector 343 World.node[15].lteNic.pdcpRrc receivedPacketFromUpperLayer:vector(packetBytes) ETV
attr interpolationmode none
attr source receivedPacketFromUpperLayer
vector 344 World.node[15].lteNic.pdcpRrc sentPacketToLowerLayer:vector(packetBytes) ETV
attr interpolationmode none
attr source sentPacketToLowerLayer
vector 345 World.node[15].lteNic.mac resourceReselectionCounter:vector ETV
attr source resourceReselectionCounter
attr title "ResourceReselectionCounter selectedNumber of transmissions, vector"
vector 346 World.node[15].lteNic.mac sentPacketToLowerLayer:vector(packetBytes) ETV
attr interpolationmode none
attr source sentPacketToLowerLayer
vector 347 World.node[15].lteNic.mac grantRequests:vector ETV
attr source grantRequests
attr title "Total number of requested grants, vector"
vector 348 World.node[15].lteNic.mac receivedPacketFromUpperLayer:vector(packetBytes) ETV
attr interpolationmode none
attr source receivedPacketFromUpperLayer
vector 349 World.node[15].lteNic.mac receivedPacketFromLowerLayer:vector(packetBytes) ETV
attr interpolationmode none
attr source receivedPacketFromLowerLayer
vector 350 World.node[15].lteNic.mac grantStartTime:vector ETV
attr source grantStartTime
attr title "Grant StartTime, vector"
vector 351 World.node[15].lteNic.mac selectedSubchannelIndex:vector ETV
attr source selectedSubchannelIndex
attr title "SelectedSubchannelIndex, vector"
vector 352 World.node[15].lteNic.mac selectedNumSubchannels:vector ETV
attr source selectedNumSubchannels
attr title "SelectedNumSubchannels, vector"
vector 353 World.node[15].lteNic.mac takingReservedGrant:vector ETV
attr source takingReservedGrant
attr title "takingReservedGrant, vector"
vector 354 World.node[8].middleware.CP cpmGenerationTime:vector ETV
attr source cpmGenerationTime
attr title "cpmGenerationTime, vector"
vector 355 World.node[8].middleware.CP cpmSourceId:vector ETV
attr source cpmSourceId
attr title "cpmSourceId, vector"
vector 356 World.node[8].middleware.CP cpmContainedId:vector ETV
attr source cpmContainedId
attr title "cpmContainedId, vector"
vector 357 World.node[8].lteNic.pdcpRrc receivedPacketFromUpperLayer:vector(packetBytes) ETV
attr interpolationmode none
attr source receivedPacketFromUpperLayer
vector 358 World.node[8].lteNic.pdcpRrc sentPacketToLowerLayer:vector(packetBytes) ETV
attr interpolationmode none
attr source sentPacketToLowerLayer
vector 359 World.node[8].lteNic.mac resourceReselectionCounter:vector ETV
attr source resourceReselectionCounter
attr title "ResourceReselectionCounter selectedNumber of transmissions, vector"
vector 360 World.node[8].lteNic.mac sentPacketToLowerLayer:vector(packetBytes) ETV
attr interpolationmode none
attr source sentPacketToLowerLayer
vector 361 World.node[8].lteNic.mac grantRequests:vector ETV
attr source grantRequests
attr title "Total number of requested grants, vector"
vector 362 World.node[8].lteNic.mac receivedPacketFromUpperLayer:vector(packetBytes) ETV
attr interpolationmode none
attr source receivedPacketFromUpperLayer
vector 363 World.node[8].lteNic.mac receivedPacketFromLowerLayer:vector(packetBytes) ETV
attr interpolationmode none
attr source receivedPacketFromLowerLayer
vector 364 World.node[8].lteNic.mac grantStartTime:vector ETV
attr source grantStartTime
attr title "Grant StartTime, vector"
vector 365 World.node[8].lteNic.mac selectedSubchannelIndex:vector ETV
attr source selectedSubchannelIndex
attr title "SelectedSubchannelIndex, vector"
vector 366 World.node[8].lteNic.mac selectedNumSubchannels:vector ETV
attr source selectedNumSubchannels
attr title "SelectedNumSubchannels, vector"
vector 367 World.node[8].lteNic.mac takingReservedGrant:vector ETV
attr source takingReservedGrant
attr title "takingReservedGrant, vector"
vector 368 World.node[11].lteNic.mac sentPacketToUpperLayer:vector(packetBytes) ETV
attr interpolationmode none
attr source sentPacketToUpperLayer
vector 369 World.node[11].lteNic.mac selectedMCS:vector ETV
attr source selectedMCS
attr title "MCS selected for transmission, vector"
vector 370 World.node[11].lteNic.phy sciSent:vector ETV
attr source sciSent
attr title "Number of sci sent, vector"
vector 371 World.node[11].lteNic.phy subchannelSent:vector ETV
attr source subchannelSent
attr title "starting Subchannel used for sent message, vector"
vector 372 World.node[11].lteNic.phy subchannelsUsedToSend:vector ETV
attr source subchannelsUsedToSend
attr title "Number of subchannels used for message, vector"
vector 373 World.node[11].lteNic.phy tbSent:vector ETV
attr source tbSent
attr title "Number of tb sent, vector"
vector 374 World.node[15].lteNic.phy cbr:vector ETV
attr source cbr
attr title "Channel Busy Ratio, vector"
vector 375 World.node[15].lteNic.phy cbrPscch:vector ETV
attr source cbrPscch
attr title "Channel Busy Ratio for PSCCH, vector"
vector 376 World.node[15].lteNic.mac sentPacketToUpperLayer:vector(packetBytes) ETV
attr interpolationmode none
attr source sentPacketToUpperLayer
vector 377 World.node[15].lteNic.pdcpRrc sentPacketToUpperLayer:vector(packetBytes) ETV
attr interpolationmode none
attr source sentPacketToUpperLayer
vector 378 World.node[0].lteNic.phy txRxDistanceSCI:vector ETV
attr source txRxDistanceSCI
attr title "Distance between transmitter and receiver, vector"
vector 379 World.node[0].lteNic.phy senderID:vector ETV
attr source senderID
attr title "ID of node who sent message, vector"
vector 380 World.node[0].lteNic.phy sciReceived:vector ETV
attr source sciReceived
attr title "Number of received sci, vector"
vector 381 World.node[0].lteNic.phy sciUnsensed:vector ETV
attr source sciUnsensed
attr title "Number of failed SCIs due to RSRP below threshold, vector"
vector 382 World.node[0].lteNic.phy sciDecoded:vector ETV
attr source sciDecoded
attr title "Number of sci successfully decoded, vector"
vector 383 World.node[0].lteNic.phy sciFailedDueToProp:vector ETV
attr source sciFailedDueToProp
attr title "Number of failed SCIs due to propogation, vector"
vector 384 World.node[0].lteNic.phy sciFailedDueToInterference:vector ETV
attr source sciFailedDueToInterference
attr title "Number of failed SCIs due to interference, vector"
vector 385 World.node[0].lteNic.phy sciFailedHalfDuplex:vector ETV
attr source sciFailedHalfDuplex
attr title "Number of failed SCIs due to Half Duplex, vector"
vector 386 World.node[0].lteNic.phy subchannelReceived:vector ETV
attr source subchannelReceived
attr title "Initial Subchannel on which packet is received, vector"
vector 387 World.node[0].lteNic.phy subchannelsUsed:vector ETV
attr source subchannelsUsed
attr title "Number of Subchannels used for the received packet, vector"
vector 388 World.node[0].lteNic.phy txRxDistanceTB:vector ETV
attr source txRxDistanceTB
attr title "Distance between transmitter and receiver, vector"
vector 389 World.node[0].lteNic.phy tbReceived:vector ETV
attr source tbReceived
attr title "Number of tb received, vector"
vector 390 World.node[0].lteNic.phy tbDecoded:vector ETV
attr source tbDecoded
attr title "Number of tb Decoded, vector"
vector 391 World.node[0].lteNic.phy tbFailedDueToNoSCI:vector ETV
attr source tbFailedDueToNoSCI
attr title "Number of tb not decoded due to no SCI, vector"
vector 392 World.node[0].lteNic.phy tbFailedDueToProp:vector ETV
attr source tbFailedDueToProp
attr title "Number of failed TBs due to propogation, vector"
vector 393 World.node[0].lteNic.phy tbFailedDueToInterference:vector ETV
attr source tbFailedDueToInterference
attr title "Number of failed TBs due to interference, vector"
vector 394 World.node[0].lteNic.phy tbFailedButSCIReceived:vector ETV
attr source tbFailedButSCIReceived
attr title "Number of failed TBs with a decoded SCI, vector"
vector 395 World.node[0].lteNic.phy tbFailedHalfDuplex:vector ETV
attr source tbFailedHalfDuplex
attr title "Number of failed TBs due to Half Duplex, vector"
vector 396 World.node[0].lteNic.phy periodic:vector ETV
attr source periodic
attr title "Identifies traffic as periodic or aperiodic, vector"
vector 397 World.node[0].lteNic.phy tbFailedDueToPropIgnoreSCI:vector ETV
attr source tbFailedDueToPropIgnoreSCI
attr title "Number of failed TBs due to propogation, vector"
vector 398 World.node[0].lteNic.phy tbFailedDueToInterferenceIgnoreSCI:vector ETV
attr source tbFailedDueToInterferenceIgnoreSCI
attr title "Number of failed TBs due to interference, vector"
vector 399 World.node[0].lteNic.phy tbDecodedIgnoreSCI:vector ETV
attr source tbDecodedIgnoreSCI
attr title "Number of failed TBs due to interference, vector"
vector 400 World.node[0].lteNic.mac receivedPacketFromLowerLayer:vector(packetBytes) ETV
attr interpolationmode none
attr source receivedPacketFromLowerLayer
vector 401 World.node[1].lteNic.phy txRxDistanceSCI:vector ETV
attr source txRxDistanceSCI
attr title "Distance between transmitter and receiver, vector"
vector 402 World.node[1].lteNic.phy senderID:vector ETV
attr source senderID
attr title "ID of node who sent message, vector"
vector 403 World.node[1].lteNic.phy sciReceived:vector ETV
attr source sciReceived
attr title "Number of received sci, vector"
vector 404 World.node[1].lteNic.phy sciUnsensed:vector ETV
attr source sciUnsensed
attr title "Number of failed SCIs due to RSRP below threshold, vector"
vector 405 World.node[1].lteNic.phy sciDecoded:vector ETV
attr source sciDecoded
attr title "Number of sci successfully decoded, vector"
vector 406 World.node[1].lteNic.phy sciFailedDueToProp:vector ETV
attr source sciFailedDueToProp
attr title "Number of failed SCIs due to propogation, vector"
vector 407 World.node[1].lteNic.phy sciFailedDueToInterference:vector ETV
attr source sciFailedDueToInterference
attr title "Number of failed SCIs due to interference, vector"
vector 408 World.node[1].lteNic.phy sciFailedHalfDuplex:vector ETV
attr source sciFailedHalfDuplex
attr title "Number of failed SCIs due to Half Duplex, vector"
vector 409 World.node[1].lteNic.phy subchannelReceived:vector ETV
attr source subchannelReceived
attr title "Initial Subchannel on which packet is received, vector"
vector 410 World.node[1].lteNic.phy subchannelsUsed:vector ETV
attr source subchannelsUsed
attr title "Number of Subchannels used for the received packet, vector"
vector 411 World.node[1].lteNic.phy txRxDistanceTB:vector ETV
attr source txRxDistanceTB
attr title "Distance between transmitter and receiver, vector"
vector 412 World.node[1].lteNic.phy tbReceived:vector ETV
attr source tbReceived
attr title "Number of tb received, vector"
vector 413 World.node[1].lteNic.phy tbDecoded:vector ETV
attr source tbDecoded
attr title "Number of tb Decoded, vector"
vector 414 World.node[1].lteNic.phy tbFailedDueToNoSCI:vector ETV
attr source tbFailedDueToNoSCI
attr title "Number of tb not decoded due to no SCI, vector"
vector 415 World.node[1].lteNic.phy tbFailedDueToProp:vector ETV
attr source tbFailedDueToProp
attr title "Number of failed TBs due to propogation, vector"
vector 416 World.node[1].lteNic.phy tbFailedDueToInterference:vector ETV
attr source tbFailedDueToInterference
attr title "Number of failed TBs due to interference, vector"
vector 417 World.node[1].lteNic.phy tbFailedButSCIReceived:vector ETV
attr source tbFailedButSCIReceived
attr title "Number of failed TBs with a decoded SCI, vector"
vector 418 World.node[1].lteNic.phy tbFailedHalfDuplex:vector ETV
attr source tbFailedHalfDuplex
attr title "Number of failed TBs due to Half Duplex, vector"
vector 419 World.node[1].lteNic.phy periodic:vector ETV
attr source periodic
attr title "Identifies traffic as periodic or aperiodic, vector"
vector 420 World.node[1].lteNic.phy tbFailedDueToPropIgnoreSCI:vector ETV
attr source tbFailedDueToPropIgnoreSCI
attr title "Number of failed TBs due to propogation, vector"
vector 421 World.node[1].lteNic.phy tbFailedDueToInterferenceIgnoreSCI:vector ETV
attr source tbFailedDueToInterferenceIgnoreSCI
attr title "Number of failed TBs due to interference, vector"
vector 422 World.node[1].lteNic.phy tbDecodedIgnoreSCI:vector ETV
attr source tbDecodedIgnoreSCI
attr title "Number of failed TBs due to interference, vector"
vector 423 World.node[1].lteNic.mac receivedPacketFromLowerLayer:vector(packetBytes) ETV
attr interpolationmode none
attr source receivedPacketFromLowerLayer
vector 424 World.node[2].lteNic.phy txRxDistanceSCI:vector ETV
attr source txRxDistanceSCI
attr title "Distance between transmitter and receiver, vector"
vector 425 World.node[2].lteNic.phy senderID:vector ETV
attr source senderID
attr title "ID of node who sent message, vector"
vector 426 World.node[2].lteNic.phy sciReceived:vector ETV
attr source sciReceived
attr title "Number of received sci, vector"
vector 427 World.node[2].lteNic.phy sciUnsensed:vector ETV
attr source sciUnsensed
attr title "Number of failed SCIs due to RSRP below threshold, vector"
vector 428 World.node[2].lteNic.phy sciDecoded:vector ETV
attr source sciDecoded
attr title "Number of sci successfully decoded, vector"
vector 429 World.node[2].lteNic.phy sciFailedDueToProp:vector ETV
attr source sciFailedDueToProp
attr title "Number of failed SCIs due to propogation, vector"
vector 430 World.node[2].lteNic.phy sciFailedDueToInterference:vector ETV
attr source sciFailedDueToInterference
attr title "Number of failed SCIs due to interference, vector"
vector 431 World.node[2].lteNic.phy sciFailedHalfDuplex:vector ETV
attr source sciFailedHalfDuplex
attr title "Number of failed SCIs due to Half Duplex, vector"
vector 432 World.node[2].lteNic.phy subchannelReceived:vector ETV
attr source subchannelReceived
attr title "Initial Subchannel on which packet is received, vector"
vector 433 World.node[2].lteNic.phy subchannelsUsed:vector ETV
attr source subchannelsUsed
attr title "Number of Subchannels used for the received packet, vector"
vector 434 World.node[2].lteNic.phy txRxDistanceTB:vector ETV
attr source txRxDistanceTB
attr title "Distance between transmitter and receiver, vector"
vector 435 World.node[2].lteNic.phy tbReceived:vector ETV
attr source tbReceived
attr title "Number of tb received, vector"
vector 436 World.node[2].lteNic.phy tbDecoded:vector ETV
attr source tbDecoded
attr title "Number of tb Decoded, vector"
vector 437 World.node[2].lteNic.phy tbFailedDueToNoSCI:vector ETV
attr source tbFailedDueToNoSCI
attr title "Number of tb not decoded due to no SCI, vector"
vector 438 World.node[2].lteNic.phy tbFailedDueToProp:vector ETV
attr source tbFailedDueToProp
attr title "Number of failed TBs due to propogation, vector"
vector 439 World.node[2].lteNic.phy tbFailedDueToInterference:vector ETV
attr source tbFailedDueToInterference
attr title "Number of failed TBs due to interference, vector"
vector 440 World.node[2].lteNic.phy tbFailedButSCIReceived:vector ETV
attr source tbFailedButSCIReceived
attr title "Number of failed TBs with a decoded SCI, vector"
vector 441 World.node[2].lteNic.phy tbFailedHalfDuplex:vector ETV
attr source tbFailedHalfDuplex
attr title "Number of failed TBs due to Half Duplex, vector"
vector 442 World.node[2].lteNic.phy periodic:vector ETV
attr source periodic
attr title "Identifies traffic as periodic or aperiodic, vector"
vector 443 World.node[2].lteNic.phy tbFailedDueToPropIgnoreSCI:vector ETV
attr source tbFailedDueToPropIgnoreSCI
attr title "Number of failed TBs due to propogation, vector"
vector 444 World.node[2].lteNic.phy tbFailedDueToInterferenceIgnoreSCI:vector ETV
attr source tbFailedDueToInterferenceIgnoreSCI
attr title "Number of failed TBs due to interference, vector"
vector 445 World.node[2].lteNic.phy tbDecodedIgnoreSCI:vector ETV
attr source tbDecodedIgnoreSCI
attr title "Number of failed TBs due to interference, vector"
vector 446 World.node[2].lteNic.mac receivedPacketFromLowerLayer:vector(packetBytes) ETV
attr interpolationmode none
attr source receivedPacketFromLowerLayer
vector 447 World.node[3].lteNic.phy txRxDistanceSCI:vector ETV
attr source txRxDistanceSCI
attr title "Distance between transmitter and receiver, vector"
vector 448 World.node[3].lteNic.phy senderID:vector ETV
attr source senderID
attr title "ID of node who sent message, vector"
vector 449 World.node[3].lteNic.phy sciReceived:vector ETV
attr source sciReceived
attr title "Number of received sci, vector"
vector 450 World.node[3].lteNic.phy sciUnsensed:vector ETV
attr source sciUnsensed
attr title "Number of failed SCIs due to RSRP below threshold, vector"
vector 451 World.node[3].lteNic.phy sciDecoded:vector ETV
attr source sciDecoded
attr title "Number of sci successfully decoded, vector"
vector 452 World.node[3].lteNic.phy sciFailedDueToProp:vector ETV
attr source sciFailedDueToProp
attr title "Number of failed SCIs due to propogation, vector"
vector 453 World.node[3].lteNic.phy sciFailedDueToInterference:vector ETV
attr source sciFailedDueToInterference
attr title "Number of failed SCIs due to interference, vector"
vector 454 World.node[3].lteNic.phy sciFailedHalfDuplex:vector ETV
attr source sciFailedHalfDuplex
attr title "Number of failed SCIs due to Half Duplex, vector"
vector 455 World.node[3].lteNic.phy subchannelReceived:vector ETV
attr source subchannelReceived
attr title "Initial Subchannel on which packet is received, vector"
vector 456 World.node[3].lteNic.phy subchannelsUsed:vector ETV
attr source subchannelsUsed
attr title "Number of Subchannels used for the received packet, vector"
vector 457 World.node[3].lteNic.phy txRxDistanceTB:vector ETV
attr source txRxDistanceTB
attr title "Distance between transmitter and receiver, vector"
vector 458 World.node[3].lteNic.phy tbReceived:vector ETV
attr source tbReceived
attr title "Number of tb received, vector"
vector 459 World.node[3].lteNic.phy tbDecoded:vector ETV
attr source tbDecoded
attr title "Number of tb Decoded, vector"
vector 460 World.node[3].lteNic.phy tbFailedDueToNoSCI:vector ETV
attr source tbFailedDueToNoSCI
attr title "Number of tb not decoded due to no SCI, vector"
vector 461 World.node[3].lteNic.phy tbFailedDueToProp:vector ETV
attr source tbFailedDueToProp
attr title "Number of failed TBs due to propogation, vector"
vector 462 World.node[3].lteNic.phy tbFailedDueToInterference:vector ETV
attr source tbFailedDueToInterference
attr title "Number of failed TBs due to interference, vector"
vector 463 World.node[3].lteNic.phy tbFailedButSCIReceived:vector ETV
attr source tbFailedButSCIReceived
attr title "Number of failed TBs with a decoded SCI, vector"
vector 464 World.node[3].lteNic.phy tbFailedHalfDuplex:vector ETV
attr source tbFailedHalfDuplex
attr title "Number of failed TBs due to Half Duplex, vector"
vector 465 World.node[3].lteNic.phy periodic:vector ETV
attr source periodic
attr title "Identifies traffic as periodic or aperiodic, vector"
vector 466 World.node[3].lteNic.phy tbFailedDueToPropIgnoreSCI:vector ETV
attr source tbFailedDueToPropIgnoreSCI
attr title "Number of failed TBs due to propogation, vector"
vector 467 World.node[3].lteNic.phy tbFailedDueToInterferenceIgnoreSCI:vector ETV
attr source tbFailedDueToInterferenceIgnoreSCI
attr title "Number of failed TBs due to interference, vector"
vector 468 World.node[3].lteNic.phy tbDecodedIgnoreSCI:vector ETV
attr source tbDecodedIgnoreSCI
attr title "Number of failed TBs due to interference, vector"
vector 469 World.node[3].lteNic.mac receivedPacketFromLowerLayer:vector(packetBytes) ETV
attr interpolationmode none
attr source receivedPacketFromLowerLayer
vector 470 World.node[4].lteNic.phy txRxDistanceSCI:vector ETV
attr source txRxDistanceSCI
attr title "Distance between transmitter and receiver, vector"
vector 471 World.node[4].lteNic.phy senderID:vector ETV
attr source senderID
attr title "ID of node who sent message, vector"
vector 472 World.node[4].lteNic.phy sciReceived:vector ETV
attr source sciReceived
attr title "Number of received sci, vector"
vector 473 World.node[4].lteNic.phy sciUnsensed:vector ETV
attr source sciUnsensed
attr title "Number of failed SCIs due to RSRP below threshold, vector"
vector 474 World.node[4].lteNic.phy sciDecoded:vector ETV
attr source sciDecoded
attr title "Number of sci successfully decoded, vector"
vector 475 World.node[4].lteNic.phy sciFailedDueToProp:vector ETV
attr source sciFailedDueToProp
attr title "Number of failed SCIs due to propogation, vector"
vector 476 World.node[4].lteNic.phy sciFailedDueToInterference:vector ETV
attr source sciFailedDueToInterference
attr title "Number of failed SCIs due to interference, vector"
vector 477 World.node[4].lteNic.phy sciFailedHalfDuplex:vector ETV
attr source sciFailedHalfDuplex
attr title "Number of failed SCIs due to Half Duplex, vector"
vector 478 World.node[4].lteNic.phy subchannelReceived:vector ETV
attr source subchannelReceived
attr title "Initial Subchannel on which packet is received, vector"
vector 479 World.node[4].lteNic.phy subchannelsUsed:vector ETV
attr source subchannelsUsed
attr title "Number of Subchannels used for the received packet, vector"
vector 480 World.node[4].lteNic.phy txRxDistanceTB:vector ETV
attr source txRxDistanceTB
attr title "Distance between transmitter and receiver, vector"
vector 481 World.node[4].lteNic.phy tbReceived:vector ETV
attr source tbReceived
attr title "Number of tb received, vector"
vector 482 World.node[4].lteNic.phy tbDecoded:vector ETV
attr source tbDecoded
attr title "Number of tb Decoded, vector"
vector 483 World.node[4].lteNic.phy tbFailedDueToNoSCI:vector ETV
attr source tbFailedDueToNoSCI
attr title "Number of tb not decoded due to no SCI, vector"
vector 484 World.node[4].lteNic.phy tbFailedDueToProp:vector ETV
attr source tbFailedDueToProp
attr title "Number of failed TBs due to propogation, vector"
vector 485 World.node[4].lteNic.phy tbFailedDueToInterference:vector ETV
attr source tbFailedDueToInterference
attr title "Number of failed TBs due to interference, vector"
vector 486 World.node[4].lteNic.phy tbFailedButSCIReceived:vector ETV
attr source tbFailedButSCIReceived
attr title "Number of failed TBs with a decoded SCI, vector"
vector 487 World.node[4].lteNic.phy tbFailedHalfDuplex:vector ETV
attr source tbFailedHalfDuplex
attr title "Number of failed TBs due to Half Duplex, vector"
vector 488 World.node[4].lteNic.phy periodic:vector ETV
attr source periodic
attr title "Identifies traffic as periodic or aperiodic, vector"
vector 489 World.node[4].lteNic.phy tbFailedDueToPropIgnoreSCI:vector ETV
attr source tbFailedDueToPropIgnoreSCI
attr title "Number of failed TBs due to propogation, vector"
vector 490 World.node[4].lteNic.phy tbFailedDueToInterferenceIgnoreSCI:vector ETV
attr source tbFailedDueToInterferenceIgnoreSCI
attr title "Number of failed TBs due to interference, vector"
vector 491 World.node[4].lteNic.phy tbDecodedIgnoreSCI:vector ETV
attr source tbDecodedIgnoreSCI
attr title "Number of failed TBs due to interference, vector"
vector 492 World.node[4].lteNic.mac receivedPacketFromLowerLayer:vector(packetBytes) ETV
attr interpolationmode none
attr source receivedPacketFromLowerLayer
vector 493 World.node[5].lteNic.phy txRxDistanceSCI:vector ETV
attr source txRxDistanceSCI
attr title "Distance between transmitter and receiver, vector"
vector 494 World.node[5].lteNic.phy senderID:vector ETV
attr source senderID
attr title "ID of node who sent message, vector"
vector 495 World.node[5].lteNic.phy sciReceived:vector ETV
attr source sciReceived
attr title "Number of received sci, vector"
vector 496 World.node[5].lteNic.phy sciUnsensed:vector ETV
attr source sciUnsensed
attr title "Number of failed SCIs due to RSRP below threshold, vector"
vector 497 World.node[5].lteNic.phy sciDecoded:vector ETV
attr source sciDecoded
attr title "Number of sci successfully decoded, vector"
vector 498 World.node[5].lteNic.phy sciFailedDueToProp:vector ETV
attr source sciFailedDueToProp
attr title "Number of failed SCIs due to propogation, vector"
vector 499 World.node[5].lteNic.phy sciFailedDueToInterference:vector ETV
attr source sciFailedDueToInterference
attr title "Number of failed SCIs due to interference, vector"
vector 500 World.node[5].lteNic.phy sciFailedHalfDuplex:vector ETV
attr source sciFailedHalfDuplex
attr title "Number of failed SCIs due to Half Duplex, vector"
vector 501 World.node[5].lteNic.phy subchannelReceived:vector ETV
attr source subchannelReceived
attr title "Initial Subchannel on which packet is received, vector"
vector 502 World.node[5].lteNic.phy subchannelsUsed:vector ETV
attr source subchannelsUsed
attr title "Number of Subchannels used for the received packet, vector"
vector 503 World.node[5].lteNic.phy txRxDistanceTB:vector ETV
attr source txRxDistanceTB
attr title "Distance between transmitter and receiver, vector"
vector 504 World.node[5].lteNic.phy tbReceived:vector ETV
attr source tbReceived
attr title "Number of tb received, vector"
vector 505 World.node[5].lteNic.phy tbDecoded:vector ETV
attr source tbDecoded
attr title "Number of tb Decoded, vector"
vector 506 World.node[5].lteNic.phy tbFailedDueToNoSCI:vector ETV
attr source tbFailedDueToNoSCI
attr title "Number of tb not decoded due to no SCI, vector"
vector 507 World.node[5].lteNic.phy tbFailedDueToProp:vector ETV
attr source tbFailedDueToProp
attr title "Number of failed TBs due to propogation, vector"
vector 508 World.node[5].lteNic.phy tbFailedDueToInterference:vector ETV
attr source tbFailedDueToInterference
attr title "Number of failed TBs due to interference, vector"
vector 509 World.node[5].lteNic.phy tbFailedButSCIReceived:vector ETV
attr source tbFailedButSCIReceived
attr title "Number of failed TBs with a decoded SCI, vector"
vector 510 World.node[5].lteNic.phy tbFailedHalfDuplex:vector ETV
attr source tbFailedHalfDuplex
attr title "Number of failed TBs due to Half Duplex, vector"
vector 511 World.node[5].lteNic.phy periodic:vector ETV
attr source periodic
attr title "Identifies traffic as periodic or aperiodic, vector"
vector 512 World.node[5].lteNic.phy tbFailedDueToPropIgnoreSCI:vector ETV
attr source tbFailedDueToPropIgnoreSCI
attr title "Number of failed TBs due to propogation, vector"
vector 513 World.node[5].lteNic.phy tbFailedDueToInterferenceIgnoreSCI:vector ETV
attr source tbFailedDueToInterferenceIgnoreSCI
attr title "Number of failed TBs due to interference, vector"
vector 514 World.node[5].lteNic.phy tbDecodedIgnoreSCI:vector ETV
attr source tbDecodedIgnoreSCI
attr title "Number of failed TBs due to interference, vector"
vector 515 World.node[5].lteNic.mac receivedPacketFromLowerLayer:vector(packetBytes) ETV
attr interpolationmode none
attr source receivedPacketFromLowerLayer
vector 516 World.node[6].lteNic.phy txRxDistanceSCI:vector ETV
attr source txRxDistanceSCI
attr title "Distance between transmitter and receiver, vector"
vector 517 World.node[6].lteNic.phy senderID:vector ETV
attr source senderID
attr title "ID of node who sent message, vector"
vector 518 World.node[6].lteNic.phy sciReceived:vector ETV
attr source sciReceived
attr title "Number of received sci, vector"
vector 519 World.node[6].lteNic.phy sciUnsensed:vector ETV
attr source sciUnsensed
attr title "Number of failed SCIs due to RSRP below threshold, vector"
vector 520 World.node[6].lteNic.phy sciDecoded:vector ETV
attr source sciDecoded
attr title "Number of sci successfully decoded, vector"
vector 521 World.node[6].lteNic.phy sciFailedDueToProp:vector ETV
attr source sciFailedDueToProp
attr title "Number of failed SCIs due to propogation, vector"
vector 522 World.node[6].lteNic.phy sciFailedDueToInterference:vector ETV
attr source sciFailedDueToInterference
attr title "Number of failed SCIs due to interference, vector"
vector 523 World.node[6].lteNic.phy sciFailedHalfDuplex:vector ETV
attr source sciFailedHalfDuplex
attr title "Number of failed SCIs due to Half Duplex, vector"
vector 524 World.node[6].lteNic.phy subchannelReceived:vector ETV
attr source subchannelReceived
attr title "Initial Subchannel on which packet is received, vector"
vector 525 World.node[6].lteNic.phy subchannelsUsed:vector ETV
attr source subchannelsUsed
attr title "Number of Subchannels used for the received packet, vector"
vector 526 World.node[6].lteNic.phy txRxDistanceTB:vector ETV
attr source txRxDistanceTB
attr title "Distance between transmitter and receiver, vector"
vector 527 World.node[6].lteNic.phy tbReceived:vector ETV
attr source tbReceived
attr title "Number of tb received, vector"
vector 528 World.node[6].lteNic.phy tbDecoded:vector ETV
attr source tbDecoded
attr title "Number of tb Decoded, vector"
vector 529 World.node[6].lteNic.phy tbFailedDueToNoSCI:vector ETV
attr source tbFailedDueToNoSCI
attr title "Number of tb not decoded due to no SCI, vector"
vector 530 World.node[6].lteNic.phy tbFailedDueToProp:vector ETV
attr source tbFailedDueToProp
attr title "Number of failed TBs due to propogation, vector"
vector 531 World.node[6].lteNic.phy tbFailedDueToInterference:vector ETV
attr source tbFailedDueToInterference
attr title "Number of failed TBs due to interference, vector"
vector 532 World.node[6].lteNic.phy tbFailedButSCIReceived:vector ETV
attr source tbFailedButSCIReceived
attr title "Number of failed TBs with a decoded SCI, vector"
vector 533 World.node[6].lteNic.phy tbFailedHalfDuplex:vector ETV
attr source tbFailedHalfDuplex
attr title "Number of failed TBs due to Half Duplex, vector"
vector 534 World.node[6].lteNic.phy periodic:vector ETV
attr source periodic
attr title "Identifies traffic as periodic or aperiodic, vector"
vector 535 World.node[6].lteNic.phy tbFailedDueToPropIgnoreSCI:vector ETV
attr source tbFailedDueToPropIgnoreSCI
attr title "Number of failed TBs due to propogation, vector"
vector 536 World.node[6].lteNic.phy tbFailedDueToInterferenceIgnoreSCI:vector ETV
attr source tbFailedDueToInterferenceIgnoreSCI
attr title "Number of failed TBs due to interference, vector"
vector 537 World.node[6].lteNic.phy tbDecodedIgnoreSCI:vector ETV
attr source tbDecodedIgnoreSCI
attr title "Number of failed TBs due to interference, vector"
vector 538 World.node[6].lteNic.mac receivedPacketFromLowerLayer:vector(packetBytes) ETV
attr interpolationmode none
attr source receivedPacketFromLowerLayer
vector 539 World.node[7].lteNic.phy txRxDistanceSCI:vector ETV
attr source txRxDistanceSCI
attr title "Distance between transmitter and receiver, vector"
vector 540 World.node[7].lteNic.phy senderID:vector ETV
attr source senderID
attr title "ID of node who sent message, vector"
vector 541 World.node[7].lteNic.phy sciReceived:vector ETV
attr source sciReceived
attr title "Number of received sci, vector"
vector 542 World.node[7].lteNic.phy sciUnsensed:vector ETV
attr source sciUnsensed
attr title "Number of failed SCIs due to RSRP below threshold, vector"
vector 543 World.node[7].lteNic.phy sciDecoded:vector ETV
attr source sciDecoded
attr title "Number of sci successfully decoded, vector"
vector 544 World.node[7].lteNic.phy sciFailedDueToProp:vector ETV
attr source sciFailedDueToProp
attr title "Number of failed SCIs due to propogation, vector"
vector 545 World.node[7].lteNic.phy sciFailedDueToInterference:vector ETV
attr source sciFailedDueToInterference
attr title "Number of failed SCIs due to interference, vector"
vector 546 World.node[7].lteNic.phy sciFailedHalfDuplex:vector ETV
attr source sciFailedHalfDuplex
attr title "Number of failed SCIs due to Half Duplex, vector"
vector 547 World.node[7].lteNic.phy subchannelReceived:vector ETV
attr source subchannelReceived
attr title "Initial Subchannel on which packet is received, vector"
vector 548 World.node[7].lteNic.phy subchannelsUsed:vector ETV
attr source subchannelsUsed
attr title "Number of Subchannels used for the received packet, vector"
vector 549 World.node[7].lteNic.phy txRxDistanceTB:vector ETV
attr source txRxDistanceTB
attr title "Distance between transmitter and receiver, vector"
vector 550 World.node[7].lteNic.phy tbReceived:vector ETV
attr source tbReceived
attr title "Number of tb received, vector"
[...]
942	15720927 1287 229300 297581 4.166 4.989 35 1.8236832711902e+18 1.7752990123966e+19 3.8213440199884e+20 4.8617836888763e+39
941	15722214 731 229300 297581 4.166 4.989 35 4.1 4.9 157.8 713.68
1129	15722945 10711 228144 298228 4.15 4.998 283 1.8236832711902e+18 1.7752990123966e+19 2.9724319545236e+21 3.7927936553571e+40
1128	15733656 4161 228144 298228 4.15 4.998 110 1.8236832711902e+18 1.7752990123966e+19 1.1390940733092e+21 1.4314666632612e+40
1127	15737817 2407 228144 298228 4.15 4.998 110 4 4.9 490 2189.4
979	15740224 270 230612 296481 4.179257084616 4.979257084616 9 236 399 2823 928049
946	15740494 3199 227715 298232 4.145 4.998 154 0 480 46232 15417336
945	15743693 3028 227715 298232 4.145 4.998 145 186 186 26970 5016420
978	15746721 270 230612 296481 4.179257084616 4.979257084616 9 235 398 2814 922412
83	15746991 17023 227590 298312 4.145 5 856 1.6 1.6 1369.6 2191.36
82	15764014 22915 227590 298312 4.145 5 856 53.0047665 66.0945636 50621.0887611 3004705.8082012
1343	15786929 3214 227563 298416 4.144 5 145 0.058 0.5 17.745 2.630345
1307	15790143 140 237529 295582 4.261 4.969 7 1 1 7 7
1306	15790283 140 237529 295582 4.261 4.969 7 0 0 0 0
819	15790423 2811 227563 298416 4.144 5 150 1 1 150 150
818	15793234 2811 227563 298416 4.144 5 150 0 2 146 224
811	15796045 3261 227563 298416 4.144 5 150 1025 1048 155347 160890739
820	15799306 4677 227563 298416 4.144 5 150 3.9048759097914 425.60139490578 31697.445104338 9299223.6035275
831	15803983 2811 227563 298416 4.144 5 150 1 1 150 150
830	15806794 2811 227563 298416 4.144 5 150 0 0 0 0
829	15809605 2811 227563 298416 4.144 5 150 0 0 0 0
825	15812416 2811 227563 298416 4.144 5 150 0 0 0 0
824	15815227 2811 227563 298416 4.144 5 150 0 0 0 0
827	15818038 2811 227563 298416 4.144 5 150 0 0 0 0
828	15820849 2811 227563 298416 4.144 5 150 1 1 150 150
826	15823660 2811 227563 298416 4.144 5 150 0 0 0 0
823	15826471 2811 227563 298416 4.144 5 150 0 1 4 4
822	15829282 2811 227563 298416 4.144 5 150 0 1 146 146
821	15832093 2811 227563 298416 4.144 5 150 1 1 150 150
1308	15834904 140 237530 295583 4.261 4.969 7 1 1 7 7
810	15835044 4677 227563 298416 4.144 5 150 3.9048759097914 425.60139490578 31697.445104338 9299223.6035275
813	15839721 2811 227563 298416 4.144 5 150 0 0 0 0
816	15842532 2811 227563 298416 4.144 5 150 0 1 4 4
815	15845343 2811 227563 298416 4.144 5 150 0 0 0 0
817	15848154 2811 227563 298416 4.144 5 150 0 0 0 0
814	15850965 2811 227563 298416 4.144 5 150 0 1 146 146
812	15853776 2811 227563 298416 4.144 5 150 1 1 150 150
1305	15856587 140 237529 295582 4.261 4.969 7 1 1 7 7
1438	15856727 324 230396 296358 4.177 4.977 9 0.043771043771044 0.068027210884354 0.51930873359445 0.03052370546309
1437	15857051 324 230396 296358 4.177 4.977 9 0.043771043771044 0.068027210884354 0.51930873359445 0.03052370546309
980	15857375 58 230615 278866 4.179257084616 4.779257084616 2 10 11 21 221
982	15857433 56 230615 278866 4.179257084616 4.779257084616 2 1 1 2 2
985	15857489 56 230617 278868 4.179257084616 4.779257084616 2 0 0 0 0
986	15857545 56 230617 278868 4.179257084616 4.779257084616 2 1 1 2 2
1304	15857601 140 237528 295581 4.261 4.969 7 6 6 42 252
1401	15857741 40 228358 277758 4.154 4.761 2 1 1 2 2
1402	15857781 40 228358 277758 4.154 4.761 2 1 1 2 2
987	15857821 56 230617 278868 4.179257084616 4.779257084616 2 0 0 0 0
984	15857877 64 230617 278868 4.179257084616 4.779257084616 2 4.261 4.869 9.13 41.863282
943	15857941 3318 227712 298229 4.145 4.998 145 0.002 0.002 0.29 0.00058
981	15861259 336 230615 295581 4.179257084616 4.969 16 0 190 1330 252700
944	15861595 3332 227712 298229 4.145 4.998 161 0 188 27260 5124880
832	15864927 3258 227564 298417 4.144 5 157 0 190 27740 5270600
983	15868185 417 230615 296484 4.179257084616 4.979257084616 16 186 188 2990 558772
1521	15868602 141 242629 293018 4.329257084616 4.929257084616 3 1.6843653925583e+19 1.6843653925583e+19 5.0530961776749e+19 8.5112603269443e+38
1520	15868743 93 242629 293018 4.329257084616 4.929257084616 3 4.3 4.9 13.8 63.66
977	15868836 552 230610 296479 4.179257084616 4.979257084616 12 5.2740782050246e+18 1.3505650707917e+19 1.2746240215011e+20 1.438073143676e+39
976	15869388 276 230610 296479 4.179257084616 4.979257084616 6 1.6843653925583e+19 1.6843653925583e+19 1.010619235535e+20 1.7022520653889e+39
975	15869664 180 230610 296479 4.179257084616 4.979257084616 6 4.1 4.9 26.9 121.01
293	15869844 7812 232455 298289 4.2 5 420 2.3 5 1817.5 7929.47
292	15877656 7044 232455 298289 4.2 5 420 0 2 571 953
291	15884700 14568 232455 298289 4.2 5 420 1.8236832711902e+18 1.7752990123966e+19 4.381430151111e+21 5.4515054002082e+40
290	15899268 151 232455 298289 4.2 5 9 0 0 0 0
289	15899419 151 232455 298289 4.2 5 9 0 0 0 0
288	15899570 169 232455 298289 4.2 5 9 900 900 8100 7290000
287	15899739 178 232455 298289 4.2 5 9 1454 1454 13086 19027044
286	15899917 151 232455 298289 4.2 5 9 2 2 18 36
285	15900068 160 232455 298289 4.2 5 9 54 66 542 32776
284	15900228 313 232455 298289 4.2 5 9 1.6843653925583e+19 1.6843653925583e+19 1.5159288533025e+20 2.5533780980833e+39
948	15900541 1249 227717 297587 4.145 4.989 34 1.8236832711902e+18 1.7752990123966e+19 3.6935297309069e+20 4.6853011172766e+39
947	15901790 707 227717 297587 4.145 4.989 34 4 4.9 152.8 689.06
1132	15902497 10784 228150 297242 4.15 4.986 285 1.8236832711902e+18 1.7752990123966e+19 2.9636823181193e+21 3.7839632487054e+40
1131	15913281 4198 228150 298234 4.15 4.998 111 1.8236832711902e+18 1.7752990123966e+19 1.1510696510871e+21 1.4494799786852e+40
1130	15917479 2428 228150 298234 4.15 4.998 111 4 4.9 494.6 2210.48
1698	15919907 31 288275 288275 4.881587609369 4.881587609369 1 376 376 376 141376
1687	15919938 1074 273603 298105 4.703 4.998 49 235 480 16411 5789023
1686	15921012 1074 273603 298105 4.703 4.998 49 186 186 9114 1695204
1697	15922086 31 288275 288275 4.881587609369 4.881587609369 1 375 375 375 140625
1660	15922117 6565 273276 298290 4.701 5 300 1.6 1.6 480 767.99999999999
1659	15928682 7771 273276 298290 4.701 5 300 2.1 5.8069632 1004.4032832 3672.6562637258
1693	15936453 609 281278 298422 4.802 5 28 0.1 0.195 2.895 0.308025
1711	15937062 20 293656 293656 4.942 4.942 1 1 1 1 1
1710	15937082 20 293656 293656 4.942 4.942 1 0 0 0 0
1670	15937102 1006 273566 298422 4.702 5 51 1 1 51 51
1669	15938108 1006 273566 298422 4.702 5 51 0 2 45 71
1662	15939114 1159 273566 298422 4.702 5 51 1025 1047 52830 54727718
1671	15940273 1633 273566 298422 4.702 5 51 5.5520267069997 471.4903301 13273.339374038 4403169.6529913
1682	15941906 1006 273566 298422 4.702 5 51 1 1 51 51
1681	15942912 1006 273566 298422 4.702 5 51 0 0 0 0
1680	15943918 1006 273566 298422 4.702 5 51 0 0 0 0
1676	15944924 1006 273566 298422 4.702 5 51 0 0 0 0
1675	15945930 1006 273566 298422 4.702 5 51 0 0 0 0
1678	15946936 1006 273566 298422 4.702 5 51 0 0 0 0
1679	15947942 1006 273566 298422 4.702 5 51 1 1 51 51
1677	15948948 1006 273566 298422 4.702 5 51 0 0 0 0
1674	15949954 1006 273566 298422 4.702 5 51 0 1 1 1
1673	15950960 1006 273566 298422 4.702 5 51 0 1 50 50
1672	15951966 1006 273566 298422 4.702 5 51 1 1 51 51
1712	15952972 20 293657 293657 4.942 4.942 1 1 1 1 1
1661	15952992 1633 273566 298422 4.702 5 51 5.5520267069997 471.4903301 13273.339374038 4403169.6529913
1664	15954625 1006 273566 298422 4.702 5 51 0 1 1 1
1667	15955631 1006 273566 298422 4.702 5 51 0 0 0 0
1666	15956637 1006 273566 298422 4.702 5 51 0 0 0 0
1668	15957643 1006 273566 298422 4.702 5 51 0 0 0 0
1665	15958649 1006 273566 298422 4.702 5 51 0 1 50 50
1663	15959655 1006 273566 298422 4.702 5 51 1 1 51 51
1709	15960661 20 293656 293656 4.942 4.942 1 1 1 1 1
1647	15960681 18 273145 273145 4.7 4.7 1 0 0 0 0
1648	15960699 21 273145 273145 4.7 4.7 1 1048 1048 1048 1098304
1699	15960720 30 288278 288278 4.881587609369 4.881587609369 1 14 14 14 196
1701	15960750 29 288278 288278 4.881587609369 4.881587609369 1 1 1 1 1
1704	15960779 29 288280 288280 4.881587609369 4.881587609369 1 0 0 0 0
1705	15960808 29 288280 288280 4.881587609369 4.881587609369 1 1 1 1 1
1708	15960837 20 293655 293655 4.942 4.942 1 6 6 6 36
1706	15960857 29 288280 288280 4.881587609369 4.881587609369 1 0 0 0 0
1703	15960886 33 288280 288280 4.881587609369 4.881587609369 1 4.942 4.942 4.942 24.423364
1684	15960919 1172 273600 298102 4.703 4.998 49 0.002 0.002 0.098 0.000196
1700	15962091 71 288278 293655 4.881587609369 4.942 3 0 190 190 36100
1685	15962162 1094 273600 298102 4.703 4.998 50 0 188 9212 1731856
1683	15963256 1115 273567 298423 4.702 5 51 0 190 9500 1805000
1702	15964371 53 288278 293632 4.881587609369 4.942 2 186 188 374 69940
1696	15964424 235 288273 288273 4.881587609369 4.881587609369 5 3.7492151971792e+18 1.6843653925583e+19 5.0138242163963e+19 6.0161767369788e+38
1695	15964659 47 288273 288273 4.881587609369 4.881587609369 1 5.2740782050246e+18 5.2740782050246e+18 5.2740782050246e+18 2.7815900912715e+37
1694	15964706 31 288273 288273 4.881587609369 4.881587609369 1 4.8 4.8 4.8 23.04
1658	15964737 1912 273145 298289 4.7 5 100 4.6 5 477.2 2278.08
1657	15966649 1722 273145 298289 4.7 5 100 0 2 142 266
1656	15968371 3514 273145 298289 4.7 5 100 1.8236832711902e+18 1.7752990123966e+19 1.0584420773773e+21 1.3563205031753e+40
1655	15971885 70 273145 298289 4.7 5 4 0 0 0 0
1654	15971955 70 273145 298289 4.7 5 4 0 0 0 0
1653	15972025 78 273145 298289 4.7 5 4 900 900 3600 3240000
1652	15972103 82 273145 298289 4.7 5 4 1236 1236 4944 6110784
1651	15972185 70 273145 298289 4.7 5 4 2 2 8 16
1650	15972255 70 273145 298289 4.7 5 4 2 6 16 74
1649	15972325 142 273145 298289 4.7 5 4 5.2740782050246e+18 5.2740782050246e+18 2.1096312820098e+19 1.1126360365086e+38
1692	15972467 452 279702 297460 4.786 4.989 12 1.8236832711902e+18 1.7729666846441e+19 1.3975405298636e+20 1.9048893959165e+39
1691	15972919 262 279702 297460 4.786 4.989 12 4.7 4.9 57.7 277.53
1690	15973181 4437 273605 298107 4.703 4.998 117 1.8236832711902e+18 1.7752990123966e+19 1.2574900394572e+21 1.64681498232e+40
1689	15977618 1403 273605 298107 4.703 4.998 37 1.8236832711902e+18 1.7752990123966e+19 3.7251731788774e+20 4.5727737849012e+39
1688	15979021 812 273605 298107 4.703 4.998 37 4.6 4.9 175.1 828.87
1540	15979833 248 230365 278701 4.176044981927 4.776044981927 8 236 399 2552 854608
1505	15980081 3317 227600 298117 4.145 4.998 152 0 480 45727 15286761
1504	15983398 3137 227600 298117 4.145 4.998 143 186 186 26598 4947228
1539	15986535 248 230365 278701 4.176044981927 4.776044981927 8 235 398 2544 849512
1476	15986783 19591 227570 298292 4.145 5 856 -1.6 -1.6 -1369.6 2191.36
1475	16006374 25383 227570 298292 4.145 5 856 451.4986304 464.1271406 392228.7997634 179734000.95788
1519	16031757 3170 227565 298418 4.144 5 143 0.058 0.375 17.909 2.673657
1552	16034927 160 227866 285047 4.148 4.848 8 1 1 8 8
1551	16035087 160 227866 285047 4.148 4.848 8 1 1 8 8
1488	16035247 2939 227565 298418 4.144 5 149 1 1 149 149
1487	16038186 2939 227565 298418 4.144 5 149 0 2 138 216
1480	16041125 3386 227565 298418 4.144 5 149 1025 1048 154294 159781986
1489	16044511 4707 227565 298418 4.144 5 149 3.2053639990916 448.34190940134 31963.645103172 9510257.9662971
1500	16049218 2939 227565 298418 4.144 5 149 1 1 149 149
1499	16052157 2939 227565 298418 4.144 5 149 0 0 0 0
1498	16055096 2939 227565 298418 4.144 5 149 0 0 0 0
1494	16058035 2939 227565 298418 4.144 5 149 0 0 0 0
1493	16060974 2939 227565 298418 4.144 5 149 0 0 0 0
1496	16063913 2939 227565 298418 4.144 5 149 0 0 0 0
1497	16066852 2939 227565 298418 4.144 5 149 1 1 149 149
1495	16069791 2939 227565 298418 4.144 5 149 0 0 0 0
1492	16072730 2939 227565 298418 4.144 5 149 0 1 5 5
1491	16075669 2939 227565 298418 4.144 5 149 0 1 144 144
1490	16078608 2939 227565 298418 4.144 5 149 1 1 149 149
1553	16081547 160 227867 285048 4.148 4.848 8 1 1 8 8
1479	16081707 4707 227565 298418 4.144 5 149 3.2053639990916 448.34190940134 31963.645103172 9510257.9662971
1482	16086414 2939 227565 298418 4.144 5 149 0 1 1 1
1485	16089353 2939 227565 298418 4.144 5 149 0 1 4 4
1484	16092292 2939 227565 298418 4.144 5 149 0 0 0 0
1486	16095231 2939 227565 298418 4.144 5 149 0 0 0 0
1483	16098170 2939 227565 298418 4.144 5 149 0 1 144 144
1481	16101109 2939 227565 298418 4.144 5 149 1 1 149 149
1550	16104048 160 227866 285047 4.148 4.848 8 1 1 8 8
1564	16104208 323 229870 295928 4.173 4.973 9 0.040816326530612 0.068027210884354 0.50278293135436 0.02880151329661
1563	16104531 323 229870 295928 4.173 4.973 9 0.040816326530612 0.068027210884354 0.50278293135436 0.02880151329661
1549	16104854 160 227865 285046 4.148 4.848 8 6 6 48 288
1561	16105014 20 294144 294144 4.948 4.948 1 1 1 1 1
1562	16105034 20 294144 294144 4.948 4.948 1 1 1 1 1
1502	16105054 3423 227597 298114 4.145 4.998 143 0.002 0.002 0.286 0.000572
1542	16108477 336 227865 285046 4.148 4.848 16 0 190 1520 288800
1503	16108813 3477 227597 298114 4.145 4.998 160 0 188 26884 5054192
1501	16112290 3311 227566 298419 4.144 5 153 0 190 27360 5198400
1544	16115601 424 227844 285025 4.148 4.848 16 186 188 2992 559520
1557	16116025 141 230363 278699 4.176044981927 4.776044981927 3 1.2496004962806e+19 1.2496004962806e+19 3.7488014888418e+19 4.6845042009142e+38
1556	16116166 93 230363 278699 4.176044981927 4.776044981927 3 4.1 4.7 13.2 58.26
1538	16116259 466 234089 275235 4.226044981927 4.726044981927 10 1.8236832711902e+18 1.7205473246385e+19 1.0438457282013e+20 1.4058555323268e+39
1537	16116725 235 234089 275235 4.226044981927 4.726044981927 5 1.2496004962806e+19 1.2496004962806e+19 6.2480024814031e+19 7.8075070015237e+38
1536	16116960 155 234089 275235 4.226044981927 4.726044981927 5 4.2 4.7 22.2 98.74
1472	16117115 8328 232455 298289 4.2 5 425 2.3 5 1834.9 7997.17
1471	16125443 7554 232455 298289 4.2 5 425 0 2 571 953
1470	16132997 15150 232455 298289 4.2 5 425 1.8236832711902e+18 1.7752990123966e+19 4.5208628835694e+21 5.8649899126276e+40
1469	16148147 160 232455 298289 4.2 5 9 0 0 0 0
1468	16148307 160 232455 298289 4.2 5 9 0 0 0 0
1467	16148467 187 232455 298289 4.2 5 9 2700 2700 24300 65610000
1466	16148654 187 232455 298289 4.2 5 9 1403 1403 12627 17715681
1465	16148841 169 232455 298289 4.2 5 9 -2 -2 -18 36
1464	16149010 178 232455 298289 4.2 5 9 451 463 4114 1880682
1463	16149188 322 232455 298289 4.2 5 9 1.2496004962806e+19 1.2496004962806e+19 1.1246404466525e+20 1.4053512602743e+39
1507	16149510 1285 227602 297472 4.145 4.989 34 1.8236832711902e+18 1.7752990123966e+19 3.7981450191067e+20 5.003739742059e+39
1506	16150795 743 227602 297472 4.145 4.989 34 4 4.9 153.3 693.63
1512	16151538 10763 228716 298119 4.16 4.998 284 1.8236832711902e+18 1.7752990123966e+19 3.0239974534705e+21 3.9429957133009e+40
1511	16162301 4128 228716 298119 4.16 4.998 109 1.8236832711902e+18 1.7752990123966e+19 1.1468068233884e+21 1.4775320498759e+40
1510	16166429 2390 228716 298119 4.16 4.998 109 4 4.9 485.8 2171.68
1617	16168819 186 238914 292767 4.274142563529 4.924142563529 6 306 399 2115 758511
1606	16169005 3377 227594 298111 4.145 4.998 155 0 480 46760 15573040
1605	16172382 3217 227594 298111 4.145 4.998 147 186 186 27342 5085612
1616	16175599 186 238914 292767 4.274142563529 4.924142563529 6 305 398 2109 754287
1579	16175785 19591 227569 298291 4.145 5 856 -1.6 -1.6 -1369.6 2191.36
1578	16195376 24126 227569 298291 4.145 5 856 472.02305 484.211525 409597.486925 196002765.35193
1612	16219502 3256 227567 298420 4.144 5 147 0.058 0.496 18.148 2.813836
1634	16222758 59 243775 292467 4.34 4.922 3 1 1 3 3
1633	16222817 59 243775 292467 4.34 4.922 3 1 1 3 3
1589	16222876 3039 227567 298420 4.144 5 154 1 1 154 154
1588	16225915 3039 227567 298420 4.144 5 154 0 2 143 221
1581	16228954 3501 227567 298420 4.144 5 154 1025 1048 159521 165246287
1590	16232455 4845 227567 298420 4.144 5 154 3.2053399291189 468.81693743434 34824.972442736 10857586.065671
1601	16237300 3039 227567 298420 4.144 5 154 1 1 154 154
1600	16240339 3039 227567 298420 4.144 5 154 0 0 0 0
1599	16243378 3039 227567 298420 4.144 5 154 0 0 0 0
1595	16246417 3039 227567 298420 4.144 5 154 0 0 0 0
1594	16249456 3039 227567 298420 4.144 5 154 0 0 0 0
1597	16252495 3039 227567 298420 4.144 5 154 0 0 0 0
1598	16255534 3039 227567 298420 4.144 5 154 1 1 154 154
1596	16258573 3039 227567 298420 4.144 5 154 0 0 0 0
1593	16261612 3039 227567 298420 4.144 5 154 0 1 6 6
1592	16264651 3039 227567 298420 4.144 5 154 0 1 148 148
1591	16267690 3039 227567 298420 4.144 5 154 1 1 154 154
1635	16270729 59 243776 292468 4.34 4.922 3 1 1 3 3
1580	16270788 4845 227567 298420 4.144 5 154 3.2053399291189 468.81693743434 34824.972442736 10857586.065671
1583	16275633 3039 227567 298420 4.144 5 154 0 1 2 2
1586	16278672 3039 227567 298420 4.144 5 154 0 1 4 4
1585	16281711 3039 227567 298420 4.144 5 154 0 0 0 0
1587	16284750 3039 227567 298420 4.144 5 154 0 0 0 0
1584	16287789 3039 227567 298420 4.144 5 154 0 1 148 148
1582	16290828 3039 227567 298420 4.144 5 154 1 1 154 154
1632	16293867 59 243775 292467 4.34 4.922 3 1 1 3 3
1638	16293926 287 233991 292772 4.225 4.925 8 0.04421768707483 0.068027210884354 0.48316498316498 0.029655960688836
1637	16294213 287 233991 292772 4.225 4.925 8 0.04421768707483 0.068027210884354 0.48316498316498 0.029655960688836
1618	16294500 90 238917 287521 4.274142563529 4.874142563529 3 10 13 33 369
1620	16294590 87 238917 287521 4.274142563529 4.874142563529 3 1 1 3 3
1623	16294677 87 238919 287523 4.274142563529 4.874142563529 3 1 1 3 3
1624	16294764 87 238919 287523 4.274142563529 4.874142563529 3 1 1 3 3
1631	16294851 59 243774 292466 4.34 4.922 3 6 6 18 108
1639	16294910 59 233341 276692 4.214 4.751 3 1 1 3 3
1640	16294969 59 233341 276692 4.214 4.751 3 1 1 3 3
1625	16295028 87 238919 287523 4.274142563529 4.874142563529 3 0 0 0 0
1622	16295115 98 238919 287523 4.274142563529 4.874142563529 3 4.34 4.922 13.913 64.693485
1603	16295213 3511 227591 298108 4.145 4.998 147 0.002 0.002 0.294 0.000588
1619	16298724 211 238917 292466 4.274142563529 4.922 9 0 190 570 108300
1604	16298935 3436 227591 298108 4.145 4.998 158 0 188 27636 5195568
1602	16302371 3466 227568 298421 4.144 5 159 0 190 28120 5342800
1621	16305837 251 238917 292770 4.274142563529 4.924142563529 9 186 188 1680 313608
1615	16306088 138 238912 287516 4.274142563529 4.874142563529 3 1.160119629972e+19 1.160119629972e+19 3.480358889916e+19 4.0376326675392e+38
1614	16306226 93 238912 287516 4.274142563529 4.874142563529 3 4.2 4.8 13.5 60.93
1628	16306319 420 242367 292765 4.324142563529 4.924142563529 9 1.8236832711902e+18 1.505457125536e+19 8.8122778468069e+19 1.1583482291604e+39
1627	16306739 138 242367 292765 4.324142563529 4.924142563529 3 1.160119629972e+19 1.160119629972e+19 3.480358889916e+19 4.0376326675392e+38
1626	16306877 93 242367 292765 4.324142563529 4.924142563529 3 4.3 4.9 13.8 63.66
1577	16306970 7900 232455 298289 4.2 5 403 3.3 5 1748.6 7633.58
1576	16314870 7162 232455 298289 4.2 5 403 0 2 567 949
1575	16322032 14389 232455 298289 4.2 5 403 1.8236832711902e+18 1.7752990123966e+19 4.3152943583214e+21 5.6059194985758e+40
1574	16336421 160 232455 298289 4.2 5 9 0 0 0 0
1573	16336581 160 232455 298289 4.2 5 9 0 0 0 0
1572	16336741 187 232455 298289 4.2 5 9 2700 2700 24300 65610000
1571	16336928 187 232455 298289 4.2 5 9 1354 1354 12186 16499844
1570	16337115 169 232455 298289 4.2 5 9 -2 -2 -18 36
1569	16337284 178 232455 298289 4.2 5 9 472 483 4297 2051697
1568	16337462 313 232455 298289 4.2 5 9 1.160119629972e+19 1.160119629972e+19 1.0441076669748e+20 1.2112898002618e+39
1611	16337775 1322 227596 297466 4.145 4.989 35 1.8236832711902e+18 1.7752990123966e+19 3.9143850148398e+20 5.1368499515115e+39
1610	16339097 763 227596 297466 4.145 4.989 35 4 4.9 157.2 708.52
1609	16339860 11059 228029 298113 4.15 4.998 292 1.8236832711902e+18 1.7752990123966e+19 3.1209072642402e+21 4.0677154511835e+40
1608	16350919 4238 228029 298113 4.15 4.998 112 1.8236832711902e+18 1.7752990123966e+19 1.1817368066402e+21 1.5159337150208e+40
1607	16355157 2450 228029 298113 4.15 4.998 112 4 4.9 499.1 2230.77

