file 776572 1733561894                                          
version 2
run Base-0-20241207-17:58:00-18621
attr configname Base
attr datetime 20241207-17:58:00
attr experiment Base
attr inifile omnetpp.ini
attr iterationvars ""
attr iterationvarsf ""
attr measurement ""
attr network artery.envmod.World
attr processid 18621
attr repetition 0
attr replication #0
attr resultdir results
attr runnumber 0
attr seedset 0
param *.traci.launcher.sumocfg "\"myroad/threeLane.sumocfg.xml\""
param *.traci.launcher.sumo "\"sumo-gui\""
param **.lteNic.phy.channelModel "xmldoc(\"config_channel.xml\")"
param **.feedbackComputation "xmldoc(\"config_channel.xml\")"
param *.node[*].d2dCapable true
param *.node[*].mode4D2D true
param **.amcMode "\"D2D\""
param *.node[*].nicType "\"LteNicVUeMode4\""
param *.node[*].lteNic.d2dCapable true
param *.node[*].lteNic.pdcpRrc.ipBased false
param *.node[*].lteNic.rlc.ipBased false
param *.node[*].lteNic.mac.subchannelSize 25
param *.node[*].lteNic.mac.numSubchannels 2
param *.node[*].lteNic.mac.probResourceKeep 0.4
param *.node[*].lteNic.mac.useCBR false
param *.node[*].lteNic.mac.crLimit false
param *.node[*].lteNic.mac.rriLookup false
param *.node[*].lteNic.mac.dccMechanism false
param *.node[*].lteNic.mac.packetDropping false
param *.node[*].lteNic.mac.reselectAfter 1
param *.node[*].lteNic.mac.adjacencyPSCCHPSSCH true
param *.node[*].lteNic.rlc.um.scenario3gpp false
param *.node[*].lteNic.phy.subchannelSize 25
param *.node[*].lteNic.phy.numSubchannels 2
param *.node[*].lteNic.phy.selectionWindowStartingSubframe 1
param *.node[*].lteNic.phy.adjacencyPSCCHPSSCH true
param *.node[*].lteNic.phy.pStep 100
param *.node[*].lteNic.phy.thresholdRSSI 11
param *.node[*].ueTxPower 23
param *.node[*].lteNic.phy.d2dTxPower 23
param **.usePreconfiguredTxParams true
param *.node[*].application.typename "\"artery.lte.Mode4Application\""
param *.node[*].application.middleware.updateInterval 0.1s
param *.node[*].application.middleware.datetime "\"2013-06-01 12:35:00\""
param *.node[*].application.middleware.services "xmldoc(\"services.xml\")"
param **.lteNic.mac.txConfig "xmldoc(\"sidelink_configuration.xml\")"
param *.node[*].middleware.updateInterval 0.1s
param *.node[*].middleware.datetime "\"2018-01-17 13:44:00\""
param *.node[*].middleware.services "xmldoc(\"services.xml\")"
param *.node[*].middleware.CaService.withDccRestriction false
param *.node[*].middleware.CP.withDccRestriction false
param *.node[*].vanetza.dcc.TransmitRateControl "\"NoTransmitRateControl\""
param *.node[*].middleware.CaService.fixedRate false
param *.node[*].middleware.CaService.minInterval 0.1s
param *.node[*].middleware.CaService.maxInterval 1.0s
param *.node[*].middleware.CP.dccProfile 3
param *.node[*].environmentModel.sensors "xmldoc(\"sensors.xml\")"
param *.node[*].middleware.CP.lowerPosX 750
param *.node[*].middleware.CP.upperPosX 1250
param *.node[*].middleware.CP.lowerPosY 750
param *.node[*].middleware.CP.upperPosY 1250
param *.node[*].lteNic.phy.lowerPosX 750
param *.node[*].lteNic.phy.upperPosX 1250
param *.node[*].lteNic.phy.lowerPosY 750
param *.node[*].lteNic.phy.upperPosY 1250
param *.node[*].environmentModel.CircularRadar.fovRange 150m
param *.node[*].environmentModel.CircularRadar.fovAngle 359.9
param *.node[*].environmentModel.CircularRadar.numSegments 10
param **.identityRegistryModule "\"idRegistry\""
param *.traci.mapper.vehicleType "\"artery.envmod.Car\""
param *.environmentModel.obstacleTypes "\"building shop\""
param *.environmentModel.traciModule "\"traci\""
param *.environmentModel.nodeMobilityModule "\".mobility\""
param *.logLevel INFO
param **.coreDebug true
param **.routingRecorder.enabled false
param *.playgroundSizeX 20000m
param *.playgroundSizeY 20000m
param *.playgroundSizeZ 50m
param *.traci.core.version -1
param *.traci.launcher.typename "\"PosixLauncher\""
param *.traci.core.startTime 1s
param **.deployer.positionUpdateInterval 0.001s
param **.channelControl.pMax 10W
param **.channelControl.alpha 1.0
param **.channelControl.carrierFrequency 6000e+6Hz
param **.rbAllocationType "\"localized\""
param **.feedbackType "\"ALLBANDS\""
param **.feedbackGeneratorType "\"IDEAL\""
param **.maxHarqRtx 0
param **.deployer.ruRange 50
param **.deployer.ruTxPower "\"50,50,50;\""
param **.deployer.antennaCws "\"2;\""
param **.deployer.numRbDl 51
param **.deployer.numRbUl 48
param **.numBands 48
param **.fbDelay 1

vector 0 World.node[0].lteNic.phy servingCell:vector ETV
attr source servingCell
attr title "ID of the serving eNodeB for the UE, vector"
attr unit ""
vector 1 World.node[0].lteNic.mac macNodeID:vector ETV
attr source macNodeID
attr title "Reports Mac NodeID to allow for trans to nodeID, vector"
vector 2 World.node[0].lteNic.phy posX:vector ETV
attr source posX
attr title "X position of node (at reception time), vector"
vector 3 World.node[0].lteNic.phy posY:vector ETV
attr source posY
attr title "Y position of node (at reception time), vector"
vector 4 World.node[0].lteNic.pdcpRrc receivedPacketFromUpperLayer:vector(packetBytes) ETV
attr interpolationmode none
attr source receivedPacketFromUpperLayer
vector 5 World.node[0].lteNic.pdcpRrc sentPacketToLowerLayer:vector(packetBytes) ETV
attr interpolationmode none
attr source sentPacketToLowerLayer
vector 6 World.node[0].lteNic.mac resourceReselectionCounter:vector ETV
attr source resourceReselectionCounter
attr title "ResourceReselectionCounter selectedNumber of transmissions, vector"
vector 7 World.node[0].lteNic.mac sentPacketToLowerLayer:vector(packetBytes) ETV
attr interpolationmode none
attr source sentPacketToLowerLayer
vector 8 World.node[0].lteNic.mac grantRequests:vector ETV
attr source grantRequests
attr title "Total number of requested grants, vector"
vector 9 World.node[0].lteNic.mac receivedPacketFromUpperLayer:vector(packetBytes) ETV
attr interpolationmode none
attr source receivedPacketFromUpperLayer
vector 10 World.node[0].lteNic.mac receivedPacketFromLowerLayer:vector(packetBytes) ETV
attr interpolationmode none
attr source receivedPacketFromLowerLayer
vector 11 World.node[0].lteNic.mac grantStartTime:vector ETV
attr source grantStartTime
attr title "Grant StartTime, vector"
vector 12 World.node[0].lteNic.mac selectedSubchannelIndex:vector ETV
attr source selectedSubchannelIndex
attr title "SelectedSubchannelIndex, vector"
vector 13 World.node[0].lteNic.mac selectedNumSubchannels:vector ETV
attr source selectedNumSubchannels
attr title "SelectedNumSubchannels, vector"
vector 14 World.node[0].lteNic.mac takingReservedGrant:vector ETV
attr source takingReservedGrant
attr title "takingReservedGrant, vector"
vector 15 World.node[0].lteNic.mac sentPacketToUpperLayer:vector(packetBytes) ETV
attr interpolationmode none
attr source sentPacketToUpperLayer
vector 16 World.node[0].lteNic.mac selectedMCS:vector ETV
attr source selectedMCS
attr title "MCS selected for transmission, vector"
vector 17 World.node[0].lteNic.phy tbSent:vector ETV
attr source tbSent
attr title "Number of tb sent, vector"
vector 18 World.node[0].lteNic.mac missedTransmission:vector ETV
attr source missedTransmission
attr title "Total Missed transmissions, vector"
vector 19 World.node[0].lteNic.mac grantBreakMissedTrans:vector ETV
attr source grantBreakMissedTrans
attr title "Total grant breaks due to missed transmissions, vector"
vector 20 World.node[0].lteNic.pdcpRrc sentPacketToUpperLayer:vector(packetBytes) ETV
attr interpolationmode none
attr source sentPacketToUpperLayer
vector 21 World.node[1].lteNic.phy servingCell:vector ETV
attr source servingCell
attr title "ID of the serving eNodeB for the UE, vector"
attr unit ""
vector 22 World.node[1].lteNic.mac macNodeID:vector ETV
attr source macNodeID
attr title "Reports Mac NodeID to allow for trans to nodeID, vector"
vector 23 World.node[1].lteNic.phy posX:vector ETV
attr source posX
attr title "X position of node (at reception time), vector"
vector 24 World.node[1].lteNic.phy posY:vector ETV
attr source posY
attr title "Y position of node (at reception time), vector"
vector 25 World.node[1].lteNic.mac receivedPacketFromLowerLayer:vector(packetBytes) ETV
attr interpolationmode none
attr source receivedPacketFromLowerLayer
vector 26 World.node[1].lteNic.mac macDelayD2D:vector ETV
attr source macDelayD2D
attr title "Delay at the MAC layer D2D, vector"
attr unit s
vector 27 World.node[1].lteNic.mac sentPacketToUpperLayer:vector(packetBytes) ETV
attr interpolationmode none
attr source sentPacketToUpperLayer
vector 28 World.node[1].lteNic.pdcpRrc receivedPacketFromLowerLayer:vector(packetBytes) ETV
attr interpolationmode none
attr source receivedPacketFromLowerLayer
vector 29 World.node[1].lteNic.pdcpRrc sentPacketToUpperLayer:vector(packetBytes) ETV
attr interpolationmode none
attr source sentPacketToUpperLayer
vector 30 World.node[1].lteNic.pdcpRrc receivedPacketFromUpperLayer:vector(packetBytes) ETV
attr interpolationmode none
attr source receivedPacketFromUpperLayer
vector 31 World.node[1].lteNic.pdcpRrc sentPacketToLowerLayer:vector(packetBytes) ETV
attr interpolationmode none
attr source sentPacketToLowerLayer
vector 32 World.node[1].lteNic.mac resourceReselectionCounter:vector ETV
attr source resourceReselectionCounter
attr title "ResourceReselectionCounter selectedNumber of transmissions, vector"
vector 33 World.node[1].lteNic.mac sentPacketToLowerLayer:vector(packetBytes) ETV
attr interpolationmode none
attr source sentPacketToLowerLayer
vector 34 World.node[1].lteNic.mac grantRequests:vector ETV
attr source grantRequests
attr title "Total number of requested grants, vector"
vector 35 World.node[1].lteNic.mac receivedPacketFromUpperLayer:vector(packetBytes) ETV
attr interpolationmode none
attr source receivedPacketFromUpperLayer
vector 36 World.node[1].lteNic.mac grantStartTime:vector ETV
attr source grantStartTime
attr title "Grant StartTime, vector"
vector 37 World.node[1].lteNic.mac selectedSubchannelIndex:vector ETV
attr source selectedSubchannelIndex
attr title "SelectedSubchannelIndex, vector"
vector 38 World.node[1].lteNic.mac selectedNumSubchannels:vector ETV
attr source selectedNumSubchannels
attr title "SelectedNumSubchannels, vector"
vector 39 World.node[1].lteNic.mac takingReservedGrant:vector ETV
attr source takingReservedGrant
attr title "takingReservedGrant, vector"
vector 40 World.node[1].lteNic.mac selectedMCS:vector ETV
attr source selectedMCS
attr title "MCS selected for transmission, vector"
vector 41 World.node[1].lteNic.phy tbSent:vector ETV
attr source tbSent
attr title "Number of tb sent, vector"
vector 42 World.node[0].lteNic.mac macDelayD2D:vector ETV
attr source macDelayD2D
attr title "Delay at the MAC layer D2D, vector"
attr unit s
vector 43 World.node[0].lteNic.pdcpRrc receivedPacketFromLowerLayer:vector(packetBytes) ETV
attr interpolationmode none
attr source receivedPacketFromLowerLayer
vector 44 World.node[1].lteNic.mac missedTransmission:vector ETV
attr source missedTransmission
attr title "Total Missed transmissions, vector"
vector 45 World.node[1].lteNic.mac grantBreakMissedTrans:vector ETV
attr source grantBreakMissedTrans
attr title "Total grant breaks due to missed transmissions, vector"
5	11078 2430 300 34092 1.14760839825 10.54760839825 95 145 145 13775 1997375
20	13508 2480 1194 33859 1.556 10.492 142 0 144 7488 1078272
43	15988 983 9947 33859 5.3 10.492 52 145 145 7540 1093300
4	16971 2430 300 34092 1.14760839825 10.54760839825 95 144 144 13680 1969920
3	19401 147483 3 34115 1.001 10.552 9552 8 8 76416 611328
2	166884 279611 3 34115 1.001 10.552 9552 6.3456307380169 130.52599248318 503789.19959981 40008291.21866
17	446495 1550 374 33658 1.178 10.451 94 1 1 94 94
0	448045 8 1 1 1 1 1 0 0 0 0
1	448053 11 1 1 1 1 1 1025 1025 1025 1050625
6	448064 2335 303 34095 1.14760839825 10.54760839825 95 10 30 1949 43691
8	450399 2240 303 34095 1.14760839825 10.54760839825 95 1 1 95 95
12	452639 2335 305 34097 1.14760839825 10.54760839825 95 0 1 57 57
13	454974 2335 305 34097 1.14760839825 10.54760839825 95 1 1 95 95
16	457309 1550 372 33656 1.178 10.451 94 5 5 470 2350
18	458859 1550 476 33899 1.228 10.501 94 1 1 94 94
19	460409 1550 476 33899 1.228 10.501 94 1 1 94 94
14	461959 2335 305 34097 1.14760839825 10.54760839825 95 0 0 0 0
11	464294 2713 305 34097 1.14760839825 10.54760839825 95 1.178 10.582 557.87 3990.180028
42	467007 1087 9944 33856 5.3 10.492 52 0.002 0.002 0.104 0.000208
7	468094 5340 303 34095 1.14760839825 10.54760839825 283 0 149 14006 2086894
15	473434 4030 367 33856 1.178 10.492 236 0 147 7644 1123668
10	477464 4819 305 34097 1.14760839825 10.54760839825 237 0 149 7748 1154452
9	482283 4074 303 34095 1.14760839825 10.54760839825 189 145 147 27593 4028621
31	486357 1488 9758 33712 5.260504301917 10.460504301917 53 145 145 7685 1114325
29	487845 1862 9478 33941 5.197 10.511 103 0 144 7632 1099008
28	489707 1006 9478 33672 5.197 10.453 53 145 145 7685 1114325
30	490713 1488 9758 33712 5.260504301917 10.460504301917 53 144 144 7632 1099008
24	492201 92415 9064 34114 5.101 10.552 5452 8 8 43616 348928
23	584616 166855 9064 34114 5.101 10.552 5452 5.1 40.936345900786 94415.045187103 2261062.1042178
41	751471 901 9931 33844 5.298 10.49 53 1 1 53 53
21	752372 14 9060 9060 5.1 5.1 1 0 0 0 0
22	752386 17 9060 9060 5.1 5.1 1 1026 1026 1026 1052676
32	752403 1435 9761 33715 5.260504301917 10.460504301917 53 10 30 1053 23397
34	753838 1382 9761 33715 5.260504301917 10.460504301917 53 1 1 53 53
37	755220 1382 9763 33717 5.260504301917 10.460504301917 53 0 1 24 24
38	756602 1382 9763 33717 5.260504301917 10.460504301917 53 1 1 53 53
40	757984 901 9929 33842 5.298 10.49 53 5 5 265 1325
44	758885 903 10151 34061 5.348 10.54 53 1 1 53 53
45	759788 903 10151 34061 5.348 10.54 53 1 1 53 53
39	760691 1382 9763 33717 5.260504301917 10.460504301917 53 0 0 0 0
36	762073 1594 9763 33717 5.260504301917 10.460504301917 53 5.298 10.49 417.845 3418.691423
26	763667 1112 9475 33669 5.197 10.453 53 0.002 0.002 0.106 0.000212
33	764779 3290 9761 33842 5.260504301917 10.49 159 0 149 7897 1176653
27	768069 2763 9475 33938 5.197 10.511 156 0 147 7791 1145277
25	770832 3244 9472 33938 5.196 10.511 156 0 149 7897 1176653
35	774076 2495 9761 33840 5.260504301917 10.49 106 145 147 15476 2259602

